lig15
                    3D
 Schrodinger Suite 2020-3.
 82 87  0  0  1  0            999 V2000
   -2.4993   46.0587  -23.6326 C   0  0  0  0  0  0
   -2.6894   47.5822  -23.7924 C   0  0  0  0  0  0
   -1.3849   48.3812  -23.9901 C   0  0  0  0  0  0
   -0.3400   47.7777  -24.2441 O   0  0  0  0  0  0
   -1.4201   49.7286  -23.8486 N   0  0  0  0  0  0
   -2.6508   50.5175  -23.7064 C   0  0  0  0  0  0
   -2.2653   51.8421  -24.3587 C   0  0  0  0  0  0
   -0.7706   52.0008  -24.0553 C   0  0  2  0  0  0
   -0.0354   52.9480  -24.9615 N   0  0  0  0  0  0
   -0.0279   52.7232  -26.3220 C   0  0  0  0  0  0
   -0.4856   51.6995  -26.8460 O   0  0  0  0  0  0
    0.5785   53.7037  -27.0762 N   0  0  0  0  0  0
    0.6994   53.5428  -28.4661 C   0  0  0  0  0  0
   -0.4313   53.7064  -29.2775 C   0  0  0  0  0  0
   -0.3463   53.4570  -30.6441 C   0  0  0  0  0  0
    0.8601   53.0417  -31.2029 C   0  0  0  0  0  0
    1.9991   52.9187  -30.4091 C   0  0  0  0  0  0
    1.9281   53.1662  -29.0371 C   0  0  0  0  0  0
    3.1757   53.0111  -28.1860 C   0  0  0  0  0  0
    0.8722   55.0600  -26.5575 C   0  0  0  0  0  0
    1.2613   55.0029  -25.0945 C   0  0  0  0  0  0
    2.0610   55.9380  -24.4341 C   0  0  0  0  0  0
    2.3483   55.8466  -23.1092 N   0  0  0  0  0  0
    1.8102   54.8008  -22.4331 C   0  0  0  0  0  0
    2.0635   54.7767  -21.0518 N   0  0  0  0  0  0
    1.6594   53.9380  -19.9934 C   0  0  0  0  0  0
    0.8601   52.7992  -20.1555 C   0  0  0  0  0  0
    0.4612   52.0434  -19.0558 C   0  0  0  0  0  0
    0.8560   52.3851  -17.7569 C   0  0  0  0  0  0
    0.4779   51.5846  -16.6826 N   0  0  0  0  0  0
    1.4638   50.7303  -15.9965 C   0  0  0  0  0  0
    1.3948   49.2440  -16.4222 C   0  0  0  0  0  0
    0.0558   48.7118  -16.1731 N   0  0  0  0  0  0
   -0.0133   47.2971  -16.5197 C   0  0  0  0  0  0
   -0.9007   49.4767  -16.9739 C   0  0  0  0  0  0
   -0.8595   50.9717  -16.5739 C   0  0  0  0  0  0
    1.6822   53.5180  -17.5877 C   0  0  0  0  0  0
    2.1677   53.9770  -16.2164 C   0  0  0  0  0  0
    2.0627   54.2814  -18.7005 C   0  0  0  0  0  0
    1.0440   53.8389  -23.0012 N   0  0  0  0  0  0
    0.7477   53.9553  -24.3258 C   0  0  0  0  0  0
   -0.2250   50.5579  -24.0523 C   0  0  0  0  0  0
   -0.7711   52.3281  -23.0151 H   0  0  0  0  0  0
   -3.4689   45.5679  -23.5381 H   0  0  0  0  0  0
   -1.9361   45.8152  -22.7309 H   0  0  0  0  0  0
   -2.0029   45.6123  -24.4961 H   0  0  0  0  0  0
   -3.3301   47.7658  -24.6563 H   0  0  0  0  0  0
   -3.2145   47.9616  -22.9135 H   0  0  0  0  0  0
   -3.5128   50.0946  -24.2239 H   0  0  0  0  0  0
   -2.8507   50.6998  -22.6496 H   0  0  0  0  0  0
   -2.4721   51.7771  -25.4260 H   0  0  0  0  0  0
   -2.8633   52.6845  -24.0107 H   0  0  0  0  0  0
   -1.3809   53.9953  -28.8525 H   0  0  0  0  0  0
   -1.2182   53.5735  -31.2711 H   0  0  0  0  0  0
    0.9098   52.8074  -32.2548 H   0  0  0  0  0  0
    2.9300   52.6118  -30.8622 H   0  0  0  0  0  0
    4.0774   52.8390  -28.7749 H   0  0  0  0  0  0
    3.3125   53.9235  -27.6107 H   0  0  0  0  0  0
    3.0448   52.1992  -27.4719 H   0  0  0  0  0  0
    1.6230   55.5570  -27.1727 H   0  0  0  0  0  0
   -0.0349   55.6583  -26.6480 H   0  0  0  0  0  0
    2.4875   56.7764  -24.9701 H   0  0  0  0  0  0
    2.5106   55.6240  -20.7331 H   0  0  0  0  0  0
    0.5192   52.4664  -21.1197 H   0  0  0  0  0  0
   -0.1488   51.1695  -19.2268 H   0  0  0  0  0  0
    2.4756   51.0804  -16.2063 H   0  0  0  0  0  0
    1.3214   50.8140  -14.9175 H   0  0  0  0  0  0
    1.6678   49.1427  -17.4722 H   0  0  0  0  0  0
    2.1272   48.6738  -15.8467 H   0  0  0  0  0  0
   -1.0024   46.8982  -16.2924 H   0  0  0  0  0  0
    0.1826   47.1280  -17.5785 H   0  0  0  0  0  0
    0.7091   46.7192  -15.9438 H   0  0  0  0  0  0
   -1.9087   49.0920  -16.7997 H   0  0  0  0  0  0
   -0.7000   49.3559  -18.0391 H   0  0  0  0  0  0
   -1.2156   51.0855  -15.5489 H   0  0  0  0  0  0
   -1.5679   51.5216  -17.1956 H   0  0  0  0  0  0
    2.2131   53.1857  -15.4722 H   0  0  0  0  0  0
    3.1776   54.3776  -16.2865 H   0  0  0  0  0  0
    1.5184   54.7689  -15.8395 H   0  0  0  0  0  0
    2.6724   55.1617  -18.5488 H   0  0  0  0  0  0
    0.5260   50.4337  -23.2712 H   0  0  0  0  0  0
    0.2139   50.3182  -25.0202 H   0  0  0  0  0  0
  1  2  1  0  0  0
  1 44  1  0  0  0
  1 45  1  0  0  0
  1 46  1  0  0  0
  2  3  1  0  0  0
  2 47  1  0  0  0
  2 48  1  0  0  0
  3  4  2  0  0  0
  3  5  1  0  0  0
  5 42  1  0  0  0
  5  6  1  0  0  0
  6  7  1  0  0  0
  6 49  1  0  0  0
  6 50  1  0  0  0
  7  8  1  0  0  0
  7 51  1  0  0  0
  7 52  1  0  0  0
  8 43  1  0  0  0
  8  9  1  0  0  0
  8 42  1  0  0  0
  9 41  1  0  0  0
  9 10  1  0  0  0
 10 11  2  0  0  0
 10 12  1  0  0  0
 12 13  1  0  0  0
 12 20  1  0  0  0
 13 18  1  0  0  0
 13 14  2  0  0  0
 14 15  1  0  0  0
 14 53  1  0  0  0
 15 16  2  0  0  0
 15 54  1  0  0  0
 16 17  1  0  0  0
 16 55  1  0  0  0
 17 18  2  0  0  0
 17 56  1  0  0  0
 18 19  1  0  0  0
 19 57  1  0  0  0
 19 58  1  0  0  0
 19 59  1  0  0  0
 20 21  1  0  0  0
 20 60  1  0  0  0
 20 61  1  0  0  0
 21 41  2  0  0  0
 21 22  1  0  0  0
 22 23  2  0  0  0
 22 62  1  0  0  0
 23 24  1  0  0  0
 24 25  1  0  0  0
 24 40  2  0  0  0
 25 26  1  0  0  0
 25 63  1  0  0  0
 26 39  1  0  0  0
 26 27  2  0  0  0
 27 28  1  0  0  0
 27 64  1  0  0  0
 28 29  2  0  0  0
 28 65  1  0  0  0
 29 30  1  0  0  0
 29 37  1  0  0  0
 30 36  1  0  0  0
 30 31  1  0  0  0
 31 32  1  0  0  0
 31 66  1  0  0  0
 31 67  1  0  0  0
 32 33  1  0  0  0
 32 68  1  0  0  0
 32 69  1  0  0  0
 33 34  1  0  0  0
 33 35  1  0  0  0
 34 70  1  0  0  0
 34 71  1  0  0  0
 34 72  1  0  0  0
 35 36  1  0  0  0
 35 73  1  0  0  0
 35 74  1  0  0  0
 36 75  1  0  0  0
 36 76  1  0  0  0
 37 38  1  0  0  0
 37 39  2  0  0  0
 38 77  1  0  0  0
 38 78  1  0  0  0
 38 79  1  0  0  0
 39 80  1  0  0  0
 40 41  1  0  0  0
 42 81  1  0  0  0
 42 82  1  0  0  0
M  END
> <s_m_source_file>
/home/user-home/yujie/0_PBCNetv2/data/0_0_high_sim/0_noncov/Sries46644/ligprep_input.csv

> <i_m_source_file_index>
16

> <i_lp_mmshare_version>
51139

> <i_f3d_flags>
0

> <s_epik_input>
W0NIM11jMVtjSF1bY0hdW2NIXVtjSF1jMU4oW0NIMl0yKUMoPU8pTihbQ0BIXShbQ0gyXTMpW0NIMl1bQ0gyXU4zQyg9TylbQ0gyXVtDSDNdKWMoYzI0KW5jKG5bY0hdNClbTkhdYzVbY0hdW2NIXWMoYyhbQ0gzXSlbY0hdNSlONltDSDJdW0NIMl1OKFtDSDNdKVtDSDJdW0NIMl02

> <s_epik_cmdline>
J2VwaWtfcHl0aG9uJywgJy1waHQnLCAnMi4wJywgJy1waCcsICc3LjQnLCAnLXRuJywgJzgnLCAnLW1hJywgJzIwMCcsICctaW1hZScsICc8aW5maWxlLm1hZT4nLCAnLW9tYWUnLCAnPG91dGZpbGUubWFlPic=

> <r_lp_tautomer_probability>
1

> <r_epik_Ionization_Penalty>
  1.5722

> <r_epik_Ionization_Penalty_Charging>
  0.0000

> <r_epik_Ionization_Penalty_Neutral>
  1.5722

> <r_epik_State_Penalty>
  1.1563

> <r_epik_Charging_Adjusted_Penalty>
1.15633

> <i_epik_Tot_Q>
0

> <i_epik_Tot_abs_Q>
0

> <s_lp_Force_Field>
OPLS3e

> <r_lp_Energy>
99.3672

> <b_lp_Chiralities_Consistent>
1

> <s_lp_Variant>
lig15-3

> <s_i_glide_gridfile>
Sries53139-001-gridgen

> <i_i_glide_lignum>
51

> <i_i_glide_rotatable_bonds>
7

> <r_i_docking_score>
-8.64776354193269

> <r_i_glide_ligand_efficiency>
-0.205899131950778

> <r_i_glide_ligand_efficiency_sa>
-0.7157108679282

> <r_i_glide_ligand_efficiency_ln>
-1.82532009166694

> <r_i_glide_gscore>
-9.80409354193269

> <r_i_glide_lipo>
-3.70144354519853

> <r_i_glide_hbond>
-0.516298130881075

> <r_i_glide_metal>
-0

> <r_i_glide_rewards>
-2.22983290558293

> <r_i_glide_evdw>
-55.5529251098633

> <r_i_glide_ecoul>
-5.24981832504272

> <r_i_glide_erotb>
0.208600043979407

> <r_i_glide_esite>
0

> <r_i_glide_emodel>
-94.365156544185

> <r_i_glide_energy>
-60.802743434906

> <r_i_glide_einternal>
5.62213611602783

> <i_i_glide_confnum>
29

> <i_i_glide_posenum>
32

> <r_i_glide_eff_state_penalty>
1.15633

$$$$
