lig18
                    3D
 Schrodinger Suite 2020-3.
 79 84  0  0  1  0            999 V2000
   -4.7317   51.2712  -21.1696 C   0  0  0  0  0  0
   -3.4033   51.6162  -20.4724 C   0  0  0  0  0  0
   -2.3003   50.5890  -20.7784 C   0  0  0  0  0  0
   -2.1696   49.6299  -20.0160 O   0  0  0  0  0  0
   -1.5052   50.7584  -21.8627 N   0  0  0  0  0  0
   -0.4380   49.8046  -22.1953 C   0  0  0  0  0  0
    0.3685   50.5302  -23.2711 C   0  0  0  0  0  0
   -0.6394   51.4701  -23.9384 C   0  0  2  0  0  0
    0.0045   52.5768  -24.7315 N   0  0  0  0  0  0
   -0.0477   52.4110  -26.1006 C   0  0  0  0  0  0
   -0.5720   51.4289  -26.6426 O   0  0  0  0  0  0
    0.6151   53.3667  -26.8452 N   0  0  0  0  0  0
    0.6884   53.2847  -28.2542 C   0  0  0  0  0  0
   -0.4653   53.1316  -29.0421 C   0  0  0  0  0  0
   -0.3663   53.0746  -30.4315 C   0  0  0  0  0  0
    0.8793   53.1769  -31.0442 C   0  0  0  0  0  0
    2.0255   53.3600  -30.2722 C   0  0  0  0  0  0
    3.5504   53.5768  -31.0434 Cl  0  0  0  0  0  0
    1.9364   53.4025  -28.8807 C   0  0  0  0  0  0
    0.9416   54.7068  -26.3040 C   0  0  0  0  0  0
    1.2629   54.6611  -24.8297 C   0  0  0  0  0  0
    2.0216   55.6225  -24.1577 C   0  0  0  0  0  0
    2.2326   55.5769  -22.8172 N   0  0  0  0  0  0
    1.6698   54.5426  -22.1457 C   0  0  0  0  0  0
    1.8593   54.5618  -20.7572 N   0  0  0  0  0  0
    1.4613   53.7289  -19.6969 C   0  0  0  0  0  0
    0.8606   52.4801  -19.8613 C   0  0  0  0  0  0
    0.4807   51.7219  -18.7569 C   0  0  0  0  0  0
    0.6952   52.1782  -17.4474 C   0  0  0  0  0  0
    0.3965   51.3611  -16.3551 N   0  0  0  0  0  0
   -0.5971   50.2678  -16.4192 C   0  0  0  0  0  0
    0.0087   48.8947  -16.8153 C   0  0  0  0  0  0
    1.0940   48.5212  -15.9045 N   0  0  0  0  0  0
    1.6755   47.2477  -16.3228 C   0  0  0  0  0  0
    2.1124   49.5734  -15.9398 C   0  0  0  0  0  0
    1.4956   50.9155  -15.4769 C   0  0  0  0  0  0
    1.2804   53.4535  -17.2795 C   0  0  0  0  0  0
    1.4588   54.1029  -15.9093 C   0  0  0  0  0  0
    1.6619   54.2003  -18.3993 C   0  0  0  0  0  0
    0.9489   53.5527  -22.7256 N   0  0  0  0  0  0
    0.7355   53.6138  -24.0689 C   0  0  0  0  0  0
   -1.5893   51.8884  -22.7988 C   0  0  0  0  0  0
   -1.2494   50.8006  -24.5496 H   0  0  0  0  0  0
   -5.5099   51.9746  -20.8764 H   0  0  0  0  0  0
   -4.6493   51.3294  -22.2554 H   0  0  0  0  0  0
   -5.0918   50.2798  -20.8904 H   0  0  0  0  0  0
   -3.5629   51.6345  -19.3912 H   0  0  0  0  0  0
   -3.0786   52.6252  -20.7300 H   0  0  0  0  0  0
   -0.8709   48.8911  -22.6061 H   0  0  0  0  0  0
    0.1936   49.5753  -21.3360 H   0  0  0  0  0  0
    0.8492   49.8574  -23.9806 H   0  0  0  0  0  0
    1.1938   51.0693  -22.8096 H   0  0  0  0  0  0
   -1.4406   53.0620  -28.5817 H   0  0  0  0  0  0
   -1.2515   52.9645  -31.0431 H   0  0  0  0  0  0
    0.9450   53.1428  -32.1230 H   0  0  0  0  0  0
    2.8340   53.5459  -28.2954 H   0  0  0  0  0  0
    1.7332   55.1903  -26.8789 H   0  0  0  0  0  0
    0.0605   55.3354  -26.4335 H   0  0  0  0  0  0
    2.4570   56.4603  -24.6881 H   0  0  0  0  0  0
    2.2905   55.4219  -20.4506 H   0  0  0  0  0  0
    0.6922   52.0606  -20.8350 H   0  0  0  0  0  0
    0.0457   50.7522  -18.9408 H   0  0  0  0  0  0
   -1.0705   50.1752  -15.4408 H   0  0  0  0  0  0
   -1.3997   50.5298  -17.1096 H   0  0  0  0  0  0
   -0.7748   48.1338  -16.7775 H   0  0  0  0  0  0
    0.3658   48.9235  -17.8441 H   0  0  0  0  0  0
    2.4778   46.9521  -15.6440 H   0  0  0  0  0  0
    0.9227   46.4567  -16.3054 H   0  0  0  0  0  0
    2.0887   47.2994  -17.3337 H   0  0  0  0  0  0
    2.5314   49.6775  -16.9429 H   0  0  0  0  0  0
    2.9371   49.3068  -15.2761 H   0  0  0  0  0  0
    2.2893   51.6609  -15.4325 H   0  0  0  0  0  0
    1.1165   50.8124  -14.4577 H   0  0  0  0  0  0
    0.7591   53.7079  -15.1727 H   0  0  0  0  0  0
    2.4779   53.9703  -15.5462 H   0  0  0  0  0  0
    1.2575   55.1733  -15.9662 H   0  0  0  0  0  0
    2.1051   55.1755  -18.2523 H   0  0  0  0  0  0
   -1.2586   52.7935  -22.2974 H   0  0  0  0  0  0
   -2.5908   52.0622  -23.1946 H   0  0  0  0  0  0
  1  2  1  0  0  0
  1 44  1  0  0  0
  1 45  1  0  0  0
  1 46  1  0  0  0
  2  3  1  0  0  0
  2 47  1  0  0  0
  2 48  1  0  0  0
  3  4  2  0  0  0
  3  5  1  0  0  0
  5 42  1  0  0  0
  5  6  1  0  0  0
  6  7  1  0  0  0
  6 49  1  0  0  0
  6 50  1  0  0  0
  7  8  1  0  0  0
  7 51  1  0  0  0
  7 52  1  0  0  0
  8 43  1  0  0  0
  8  9  1  0  0  0
  8 42  1  0  0  0
  9 41  1  0  0  0
  9 10  1  0  0  0
 10 11  2  0  0  0
 10 12  1  0  0  0
 12 13  1  0  0  0
 12 20  1  0  0  0
 13 19  1  0  0  0
 13 14  2  0  0  0
 14 15  1  0  0  0
 14 53  1  0  0  0
 15 16  2  0  0  0
 15 54  1  0  0  0
 16 17  1  0  0  0
 16 55  1  0  0  0
 17 18  1  0  0  0
 17 19  2  0  0  0
 19 56  1  0  0  0
 20 21  1  0  0  0
 20 57  1  0  0  0
 20 58  1  0  0  0
 21 41  2  0  0  0
 21 22  1  0  0  0
 22 23  2  0  0  0
 22 59  1  0  0  0
 23 24  1  0  0  0
 24 25  1  0  0  0
 24 40  2  0  0  0
 25 26  1  0  0  0
 25 60  1  0  0  0
 26 39  1  0  0  0
 26 27  2  0  0  0
 27 28  1  0  0  0
 27 61  1  0  0  0
 28 29  2  0  0  0
 28 62  1  0  0  0
 29 30  1  0  0  0
 29 37  1  0  0  0
 30 36  1  0  0  0
 30 31  1  0  0  0
 31 32  1  0  0  0
 31 63  1  0  0  0
 31 64  1  0  0  0
 32 33  1  0  0  0
 32 65  1  0  0  0
 32 66  1  0  0  0
 33 34  1  0  0  0
 33 35  1  0  0  0
 34 67  1  0  0  0
 34 68  1  0  0  0
 34 69  1  0  0  0
 35 36  1  0  0  0
 35 70  1  0  0  0
 35 71  1  0  0  0
 36 72  1  0  0  0
 36 73  1  0  0  0
 37 38  1  0  0  0
 37 39  2  0  0  0
 38 74  1  0  0  0
 38 75  1  0  0  0
 38 76  1  0  0  0
 39 77  1  0  0  0
 40 41  1  0  0  0
 42 78  1  0  0  0
 42 79  1  0  0  0
M  END
> <s_m_source_file>
/home/user-home/yujie/0_PBCNetv2/data/0_0_high_sim/0_noncov/Sries46644/ligprep_input.csv

> <i_m_source_file_index>
19

> <i_lp_mmshare_version>
51139

> <i_f3d_flags>
0

> <s_epik_input>
Q2xjKFtjSF0xKVtjSF1bY0hdW2NIXWMxTihbQ0gyXTIpQyg9TylOKFtDQEhdKFtDSDJdMylbQ0gyXVtDSDJdTjNDKD1PKVtDSDJdW0NIM10pYyhjMjQpbmMobltjSF00KVtOSF1jNVtjSF1bY0hdYyhjKFtDSDNdKVtjSF01KU42W0NIMl1bQ0gyXU4oW0NIM10pW0NIMl1bQ0gyXTY=

> <s_epik_cmdline>
J2VwaWtfcHl0aG9uJywgJy1waHQnLCAnMi4wJywgJy1waCcsICc3LjQnLCAnLXRuJywgJzgnLCAnLW1hJywgJzIwMCcsICctaW1hZScsICc8aW5maWxlLm1hZT4nLCAnLW9tYWUnLCAnPG91dGZpbGUubWFlPic=

> <r_lp_tautomer_probability>
1

> <r_epik_Ionization_Penalty>
  1.5722

> <r_epik_Ionization_Penalty_Charging>
  0.0000

> <r_epik_Ionization_Penalty_Neutral>
  1.5722

> <r_epik_State_Penalty>
  1.1563

> <r_epik_Charging_Adjusted_Penalty>
1.15633

> <i_epik_Tot_Q>
0

> <i_epik_Tot_abs_Q>
0

> <s_lp_Force_Field>
OPLS3e

> <r_lp_Energy>
103.263

> <b_lp_Chiralities_Consistent>
1

> <s_lp_Variant>
lig18-3

> <s_i_glide_gridfile>
Sries53139-001-gridgen

> <i_i_glide_lignum>
60

> <i_i_glide_rotatable_bonds>
7

> <r_i_docking_score>
-7.89969277734706

> <r_i_glide_ligand_efficiency>
-0.188087923270168

> <r_i_glide_ligand_efficiency_sa>
-0.653798632053902

> <r_i_glide_ligand_efficiency_ln>
-1.66742162578433

> <r_i_glide_gscore>
-9.05602277734707

> <r_i_glide_lipo>
-3.69146624134605

> <r_i_glide_hbond>
-0.432870769926066

> <r_i_glide_metal>
-0

> <r_i_glide_rewards>
-1.94573764018431

> <r_i_glide_evdw>
-53.3870315551758

> <r_i_glide_ecoul>
-3.29624938964844

> <r_i_glide_erotb>
0.178153613357542

> <r_i_glide_esite>
-0.000312753042120522

> <r_i_glide_emodel>
-83.4392083197734

> <r_i_glide_energy>
-56.6832809448242

> <r_i_glide_einternal>
10.6308755874634

> <i_i_glide_confnum>
115

> <i_i_glide_posenum>
250

> <r_i_glide_eff_state_penalty>
1.15633

$$$$
