lig23
                    3D
 Schrodinger Suite 2020-3.
 83 88  0  0  1  0            999 V2000
   -2.7860   45.9291  -23.2383 C   0  0  0  0  0  0
   -2.8327   47.4712  -23.2422 C   0  0  0  0  0  0
   -1.5719   48.1507  -23.8164 C   0  0  0  0  0  0
   -0.6493   47.4564  -24.2489 O   0  0  0  0  0  0
   -1.5048   49.5014  -23.8072 N   0  0  0  0  0  0
   -2.5994   50.3996  -23.4131 C   0  0  0  0  0  0
   -2.1208   51.7712  -23.9051 C   0  0  0  0  0  0
   -0.5960   51.6723  -23.8763 C   0  0  2  0  0  0
    0.1188   52.7537  -24.6404 N   0  0  0  0  0  0
    0.0650   52.7523  -26.0207 C   0  0  0  0  0  0
   -0.6683   52.0106  -26.6821 O   0  0  0  0  0  0
    1.0013   53.5684  -26.6139 N   0  0  0  0  0  0
    1.3497   53.4268  -27.9642 C   0  0  0  0  0  0
    2.6772   53.1679  -28.3128 C   0  0  0  0  0  0
    3.0316   53.0364  -29.6537 C   0  0  0  0  0  0
    2.0612   53.1688  -30.6461 C   0  0  0  0  0  0
    0.7331   53.4445  -30.3144 C   0  0  0  0  0  0
   -0.1663   53.5768  -31.3483 O   0  0  0  0  0  0
   -1.4782   54.0651  -31.0592 C   0  0  0  0  0  0
    0.3859   53.5753  -28.9656 C   0  0  0  0  0  0
    1.3384   54.8818  -26.0305 C   0  0  0  0  0  0
    1.4656   54.7844  -24.5272 C   0  0  0  0  0  0
    2.1681   55.6934  -23.7408 C   0  0  0  0  0  0
    2.2761   55.5637  -22.3937 N   0  0  0  0  0  0
    1.6526   54.4949  -21.8335 C   0  0  0  0  0  0
    1.7951   54.3768  -20.4456 N   0  0  0  0  0  0
    1.2621   53.5231  -19.4649 C   0  0  0  0  0  0
    0.3614   52.4879  -19.7252 C   0  0  0  0  0  0
   -0.1347   51.7073  -18.6886 C   0  0  0  0  0  0
    0.2581   51.9178  -17.3604 C   0  0  0  0  0  0
   -0.2174   51.0852  -16.3488 N   0  0  0  0  0  0
   -1.5301   50.4099  -16.4165 C   0  0  0  0  0  0
   -1.4625   48.9600  -16.9688 C   0  0  0  0  0  0
   -0.5291   48.1531  -16.1768 N   0  0  0  0  0  0
   -0.4623   46.7977  -16.7099 C   0  0  0  0  0  0
    0.7886   48.7860  -16.2316 C   0  0  0  0  0  0
    0.7180   50.2052  -15.6214 C   0  0  0  0  0  0
    1.1770   52.9597  -17.0963 C   0  0  0  0  0  0
    1.6190   53.3152  -15.6811 C   0  0  0  0  0  0
    1.6605   53.7500  -18.1442 C   0  0  0  0  0  0
    0.9439   53.5692  -22.5236 N   0  0  0  0  0  0
    0.8426   53.7171  -23.8721 C   0  0  0  0  0  0
   -0.3386   50.2226  -24.3225 C   0  0  0  0  0  0
   -0.3616   51.6720  -22.8150 H   0  0  0  0  0  0
   -3.6962   45.5239  -22.7965 H   0  0  0  0  0  0
   -2.7213   45.5217  -24.2477 H   0  0  0  0  0  0
   -1.9525   45.5478  -22.6456 H   0  0  0  0  0  0
   -2.9762   47.8189  -22.2181 H   0  0  0  0  0  0
   -3.6996   47.7942  -23.8205 H   0  0  0  0  0  0
   -2.6983   50.4229  -22.3279 H   0  0  0  0  0  0
   -3.5454   50.1527  -23.8973 H   0  0  0  0  0  0
   -2.5044   52.6004  -23.3098 H   0  0  0  0  0  0
   -2.4863   51.9486  -24.9169 H   0  0  0  0  0  0
    3.4353   53.0651  -27.5485 H   0  0  0  0  0  0
    4.0596   52.8303  -29.9222 H   0  0  0  0  0  0
    2.3369   53.0639  -31.6846 H   0  0  0  0  0  0
   -1.9645   54.3772  -31.9845 H   0  0  0  0  0  0
   -2.0940   53.2943  -30.5953 H   0  0  0  0  0  0
   -1.4642   54.9474  -30.4212 H   0  0  0  0  0  0
   -0.6313   53.7842  -28.6770 H   0  0  0  0  0  0
    2.2417   55.2926  -26.4866 H   0  0  0  0  0  0
    0.5384   55.5843  -26.2742 H   0  0  0  0  0  0
    2.6661   56.5392  -24.1921 H   0  0  0  0  0  0
    2.3121   55.1535  -20.0615 H   0  0  0  0  0  0
    0.0069   52.2700  -20.7165 H   0  0  0  0  0  0
   -0.8279   50.9180  -18.9416 H   0  0  0  0  0  0
   -1.9613   50.3911  -15.4131 H   0  0  0  0  0  0
   -2.2206   50.9962  -17.0220 H   0  0  0  0  0  0
   -2.4584   48.5164  -16.9161 H   0  0  0  0  0  0
   -1.1766   48.9568  -18.0221 H   0  0  0  0  0  0
    0.2067   46.1820  -16.1065 H   0  0  0  0  0  0
   -1.4474   46.3279  -16.6860 H   0  0  0  0  0  0
   -0.1016   46.7782  -17.7425 H   0  0  0  0  0  0
    1.1563   48.8352  -17.2602 H   0  0  0  0  0  0
    1.5069   48.1862  -15.6698 H   0  0  0  0  0  0
    1.7217   50.6230  -15.6275 H   0  0  0  0  0  0
    0.4102   50.1455  -14.5762 H   0  0  0  0  0  0
    2.5103   52.7558  -15.3970 H   0  0  0  0  0  0
    1.8375   54.3808  -15.5950 H   0  0  0  0  0  0
    0.8287   53.1146  -14.9556 H   0  0  0  0  0  0
    2.3467   54.5578  -17.9239 H   0  0  0  0  0  0
   -0.3388   50.1104  -25.4049 H   0  0  0  0  0  0
    0.6160   49.8540  -23.9441 H   0  0  0  0  0  0
  1  2  1  0  0  0
  1 45  1  0  0  0
  1 46  1  0  0  0
  1 47  1  0  0  0
  2  3  1  0  0  0
  2 48  1  0  0  0
  2 49  1  0  0  0
  3  4  2  0  0  0
  3  5  1  0  0  0
  5 43  1  0  0  0
  5  6  1  0  0  0
  6  7  1  0  0  0
  6 50  1  0  0  0
  6 51  1  0  0  0
  7  8  1  0  0  0
  7 52  1  0  0  0
  7 53  1  0  0  0
  8 44  1  0  0  0
  8  9  1  0  0  0
  8 43  1  0  0  0
  9 42  1  0  0  0
  9 10  1  0  0  0
 10 11  2  0  0  0
 10 12  1  0  0  0
 12 13  1  0  0  0
 12 21  1  0  0  0
 13 20  1  0  0  0
 13 14  2  0  0  0
 14 15  1  0  0  0
 14 54  1  0  0  0
 15 16  2  0  0  0
 15 55  1  0  0  0
 16 17  1  0  0  0
 16 56  1  0  0  0
 17 18  1  0  0  0
 17 20  2  0  0  0
 18 19  1  0  0  0
 19 57  1  0  0  0
 19 58  1  0  0  0
 19 59  1  0  0  0
 20 60  1  0  0  0
 21 22  1  0  0  0
 21 61  1  0  0  0
 21 62  1  0  0  0
 22 42  2  0  0  0
 22 23  1  0  0  0
 23 24  2  0  0  0
 23 63  1  0  0  0
 24 25  1  0  0  0
 25 26  1  0  0  0
 25 41  2  0  0  0
 26 27  1  0  0  0
 26 64  1  0  0  0
 27 40  1  0  0  0
 27 28  2  0  0  0
 28 29  1  0  0  0
 28 65  1  0  0  0
 29 30  2  0  0  0
 29 66  1  0  0  0
 30 31  1  0  0  0
 30 38  1  0  0  0
 31 37  1  0  0  0
 31 32  1  0  0  0
 32 33  1  0  0  0
 32 67  1  0  0  0
 32 68  1  0  0  0
 33 34  1  0  0  0
 33 69  1  0  0  0
 33 70  1  0  0  0
 34 35  1  0  0  0
 34 36  1  0  0  0
 35 71  1  0  0  0
 35 72  1  0  0  0
 35 73  1  0  0  0
 36 37  1  0  0  0
 36 74  1  0  0  0
 36 75  1  0  0  0
 37 76  1  0  0  0
 37 77  1  0  0  0
 38 39  1  0  0  0
 38 40  2  0  0  0
 39 78  1  0  0  0
 39 79  1  0  0  0
 39 80  1  0  0  0
 40 81  1  0  0  0
 41 42  1  0  0  0
 43 82  1  0  0  0
 43 83  1  0  0  0
M  END
> <s_m_source_file>
/home/user-home/yujie/0_PBCNetv2/data/0_0_high_sim/0_noncov/Sries46644/ligprep_input.csv

> <i_m_source_file_index>
24

> <i_lp_mmshare_version>
51139

> <i_f3d_flags>
0

> <s_epik_input>
W0NIM11PYyhbY0hdMSlbY0hdW2NIXVtjSF1jMU4oW0NIMl0yKUMoPU8pTihbQ0BIXShbQ0gyXTMpW0NIMl1bQ0gyXU4zQyg9TylbQ0gyXVtDSDNdKWMoYzI0KW5jKG5bY0hdNClbTkhdYzVbY0hdW2NIXWMoYyhbQ0gzXSlbY0hdNSlONltDSDJdW0NIMl1OKFtDSDNdKVtDSDJdW0NIMl02

> <s_epik_cmdline>
J2VwaWtfcHl0aG9uJywgJy1waHQnLCAnMi4wJywgJy1waCcsICc3LjQnLCAnLXRuJywgJzgnLCAnLW1hJywgJzIwMCcsICctaW1hZScsICc8aW5maWxlLm1hZT4nLCAnLW9tYWUnLCAnPG91dGZpbGUubWFlPic=

> <r_lp_tautomer_probability>
1

> <r_epik_Ionization_Penalty>
  1.5722

> <r_epik_Ionization_Penalty_Charging>
  0.0000

> <r_epik_Ionization_Penalty_Neutral>
  1.5722

> <r_epik_State_Penalty>
  1.1563

> <r_epik_Charging_Adjusted_Penalty>
1.15633

> <i_epik_Tot_Q>
0

> <i_epik_Tot_abs_Q>
0

> <s_lp_Force_Field>
OPLS3e

> <r_lp_Energy>
109.362

> <b_lp_Chiralities_Consistent>
1

> <s_lp_Variant>
lig23-3

> <s_i_glide_gridfile>
Sries53139-001-gridgen

> <i_i_glide_lignum>
75

> <i_i_glide_rotatable_bonds>
8

> <r_i_docking_score>
-8.13830183124954

> <r_i_glide_ligand_efficiency>
-0.189262833284873

> <r_i_glide_ligand_efficiency_sa>
-0.663063042202216

> <r_i_glide_ligand_efficiency_ln>
-1.70929631888914

> <r_i_glide_gscore>
-9.29463183124954

> <r_i_glide_lipo>
-3.73286360329696

> <r_i_glide_hbond>
-0.341914292081754

> <r_i_glide_metal>
-0

> <r_i_glide_rewards>
-2.08861447117305

> <r_i_glide_evdw>
-54.132999420166

> <r_i_glide_ecoul>
-4.05805826187134

> <r_i_glide_erotb>
0.184444061111237

> <r_i_glide_esite>
-0.000324815520014383

> <r_i_glide_emodel>
-85.3930147739305

> <r_i_glide_energy>
-58.1910576820374

> <r_i_glide_einternal>
9.49579429626465

> <i_i_glide_confnum>
240

> <i_i_glide_posenum>
46

> <r_i_glide_eff_state_penalty>
1.15633

$$$$
