lig22
                    3D
 Schrodinger Suite 2020-3.
 83 88  0  0  1  0            999 V2000
   -1.1390   45.9951  -24.8316 C   0  0  0  0  0  0
   -0.7269   47.4806  -24.7612 C   0  0  0  0  0  0
   -1.6107   48.3564  -23.8495 C   0  0  0  0  0  0
   -2.3680   47.8139  -23.0419 O   0  0  0  0  0  0
   -1.5322   49.7036  -23.9656 N   0  0  0  0  0  0
   -2.3505   50.6102  -23.1475 C   0  0  0  0  0  0
   -1.9819   51.9995  -23.6752 C   0  0  0  0  0  0
   -0.5692   51.8204  -24.2223 C   0  0  2  0  0  0
   -0.0916   52.9832  -25.0501 N   0  0  0  0  0  0
   -0.5339   53.1260  -26.3436 C   0  0  0  0  0  0
   -1.4811   52.4867  -26.8107 O   0  0  0  0  0  0
    0.2604   53.9465  -27.1146 N   0  0  0  0  0  0
    0.3491   53.7617  -28.5123 C   0  0  0  0  0  0
   -0.8077   53.8215  -29.3009 C   0  0  0  0  0  0
   -0.7461   53.5460  -30.6588 C   0  0  0  0  0  0
    0.4604   53.1782  -31.2512 C   0  0  0  0  0  0
    1.6299   53.1914  -30.4985 C   0  0  0  0  0  0
    1.5867   53.5006  -29.1385 C   0  0  0  0  0  0
    2.7865   53.5388  -28.4784 O   0  0  0  0  0  0
    2.9873   52.5136  -27.5332 C   0  0  0  0  0  0
    0.8743   55.1795  -26.5611 C   0  0  0  0  0  0
    1.2611   55.0170  -25.0998 C   0  0  0  0  0  0
    2.0609   55.9107  -24.3783 C   0  0  0  0  0  0
    2.3052   55.7674  -23.0468 N   0  0  0  0  0  0
    1.7186   54.7141  -22.4260 C   0  0  0  0  0  0
    1.9008   54.6196  -21.0373 N   0  0  0  0  0  0
    1.4138   53.7417  -20.0432 C   0  0  0  0  0  0
    0.5972   52.6320  -20.2938 C   0  0  0  0  0  0
    0.1165   51.8447  -19.2514 C   0  0  0  0  0  0
    0.4306   52.1308  -17.9172 C   0  0  0  0  0  0
   -0.0468   51.3093  -16.8958 N   0  0  0  0  0  0
    0.8847   50.5585  -16.0318 C   0  0  0  0  0  0
    1.0528   49.0787  -16.4623 C   0  0  0  0  0  0
   -0.2426   48.3975  -16.4514 N   0  0  0  0  0  0
   -0.0916   46.9939  -16.8231 C   0  0  0  0  0  0
   -1.1286   49.0766  -17.3991 C   0  0  0  0  0  0
   -1.3148   50.5585  -16.9864 C   0  0  0  0  0  0
    1.2631   53.2416  -17.6553 C   0  0  0  0  0  0
    1.6027   53.6912  -16.2372 C   0  0  0  0  0  0
    1.7420   54.0235  -18.7152 C   0  0  0  0  0  0
    0.9641   53.7892  -23.0567 N   0  0  0  0  0  0
    0.7431   53.9298  -24.3907 C   0  0  0  0  0  0
   -0.6177   50.4204  -24.8628 C   0  0  0  0  0  0
    0.0552   51.6663  -23.3442 H   0  0  0  0  0  0
   -0.4349   45.4360  -25.4493 H   0  0  0  0  0  0
   -1.1416   45.5237  -23.8494 H   0  0  0  0  0  0
   -2.1232   45.8732  -25.2865 H   0  0  0  0  0  0
   -0.7398   47.8879  -25.7728 H   0  0  0  0  0  0
    0.2968   47.5447  -24.3916 H   0  0  0  0  0  0
   -2.0649   50.5259  -22.0972 H   0  0  0  0  0  0
   -3.4188   50.4220  -23.2692 H   0  0  0  0  0  0
   -2.0548   52.7824  -22.9201 H   0  0  0  0  0  0
   -2.6668   52.2953  -24.4708 H   0  0  0  0  0  0
   -1.7697   54.0514  -28.8656 H   0  0  0  0  0  0
   -1.6469   53.5908  -31.2532 H   0  0  0  0  0  0
    0.4879   52.9417  -32.3055 H   0  0  0  0  0  0
    2.5755   52.9668  -30.9701 H   0  0  0  0  0  0
    4.0604   52.3705  -27.4253 H   0  0  0  0  0  0
    2.5704   52.7806  -26.5650 H   0  0  0  0  0  0
    2.5399   51.5735  -27.8447 H   0  0  0  0  0  0
    1.7075   55.5290  -27.1725 H   0  0  0  0  0  0
    0.1290   55.9732  -26.6241 H   0  0  0  0  0  0
    2.4968   56.7765  -24.8597 H   0  0  0  0  0  0
    2.3964   55.4155  -20.6618 H   0  0  0  0  0  0
    0.3050   52.3434  -21.2845 H   0  0  0  0  0  0
   -0.4995   50.9947  -19.5020 H   0  0  0  0  0  0
    1.8713   51.0187  -16.0478 H   0  0  0  0  0  0
    0.5313   50.6102  -15.0007 H   0  0  0  0  0  0
    1.5209   49.0220  -17.4452 H   0  0  0  0  0  0
    1.7293   48.5805  -15.7670 H   0  0  0  0  0  0
   -1.0548   46.4843  -16.7779 H   0  0  0  0  0  0
    0.3063   46.8724  -17.8332 H   0  0  0  0  0  0
    0.5793   46.4842  -16.1297 H   0  0  0  0  0  0
   -2.1012   48.5839  -17.4031 H   0  0  0  0  0  0
   -0.7391   49.0041  -18.4167 H   0  0  0  0  0  0
   -1.8174   50.6038  -16.0187 H   0  0  0  0  0  0
   -1.9928   51.0454  -17.6890 H   0  0  0  0  0  0
    0.8360   53.3980  -15.5189 H   0  0  0  0  0  0
    2.5659   53.2913  -15.9193 H   0  0  0  0  0  0
    1.6520   54.7768  -16.1815 H   0  0  0  0  0  0
    2.3544   54.8872  -18.4922 H   0  0  0  0  0  0
   -1.0512   50.4336  -25.8602 H   0  0  0  0  0  0
    0.3884   50.0051  -24.9117 H   0  0  0  0  0  0
  1  2  1  0  0  0
  1 45  1  0  0  0
  1 46  1  0  0  0
  1 47  1  0  0  0
  2  3  1  0  0  0
  2 48  1  0  0  0
  2 49  1  0  0  0
  3  4  2  0  0  0
  3  5  1  0  0  0
  5 43  1  0  0  0
  5  6  1  0  0  0
  6  7  1  0  0  0
  6 50  1  0  0  0
  6 51  1  0  0  0
  7  8  1  0  0  0
  7 52  1  0  0  0
  7 53  1  0  0  0
  8 44  1  0  0  0
  8  9  1  0  0  0
  8 43  1  0  0  0
  9 42  1  0  0  0
  9 10  1  0  0  0
 10 11  2  0  0  0
 10 12  1  0  0  0
 12 13  1  0  0  0
 12 21  1  0  0  0
 13 18  1  0  0  0
 13 14  2  0  0  0
 14 15  1  0  0  0
 14 54  1  0  0  0
 15 16  2  0  0  0
 15 55  1  0  0  0
 16 17  1  0  0  0
 16 56  1  0  0  0
 17 18  2  0  0  0
 17 57  1  0  0  0
 18 19  1  0  0  0
 19 20  1  0  0  0
 20 58  1  0  0  0
 20 59  1  0  0  0
 20 60  1  0  0  0
 21 22  1  0  0  0
 21 61  1  0  0  0
 21 62  1  0  0  0
 22 42  2  0  0  0
 22 23  1  0  0  0
 23 24  2  0  0  0
 23 63  1  0  0  0
 24 25  1  0  0  0
 25 26  1  0  0  0
 25 41  2  0  0  0
 26 27  1  0  0  0
 26 64  1  0  0  0
 27 40  1  0  0  0
 27 28  2  0  0  0
 28 29  1  0  0  0
 28 65  1  0  0  0
 29 30  2  0  0  0
 29 66  1  0  0  0
 30 31  1  0  0  0
 30 38  1  0  0  0
 31 37  1  0  0  0
 31 32  1  0  0  0
 32 33  1  0  0  0
 32 67  1  0  0  0
 32 68  1  0  0  0
 33 34  1  0  0  0
 33 69  1  0  0  0
 33 70  1  0  0  0
 34 35  1  0  0  0
 34 36  1  0  0  0
 35 71  1  0  0  0
 35 72  1  0  0  0
 35 73  1  0  0  0
 36 37  1  0  0  0
 36 74  1  0  0  0
 36 75  1  0  0  0
 37 76  1  0  0  0
 37 77  1  0  0  0
 38 39  1  0  0  0
 38 40  2  0  0  0
 39 78  1  0  0  0
 39 79  1  0  0  0
 39 80  1  0  0  0
 40 81  1  0  0  0
 41 42  1  0  0  0
 43 82  1  0  0  0
 43 83  1  0  0  0
M  END
> <s_m_source_file>
/home/user-home/yujie/0_PBCNetv2/data/0_0_high_sim/0_noncov/Sries46644/ligprep_input.csv

> <i_m_source_file_index>
23

> <i_lp_mmshare_version>
51139

> <i_f3d_flags>
0

> <s_epik_input>
W0NIM11PYzFbY0hdW2NIXVtjSF1bY0hdYzFOKFtDSDJdMilDKD1PKU4oW0NASF0oW0NIMl0zKVtDSDJdW0NIMl1OM0MoPU8pW0NIMl1bQ0gzXSljKGMyNCluYyhuW2NIXTQpW05IXWM1W2NIXVtjSF1jKGMoW0NIM10pW2NIXTUpTjZbQ0gyXVtDSDJdTihbQ0gzXSlbQ0gyXVtDSDJdNg==

> <s_epik_cmdline>
J2VwaWtfcHl0aG9uJywgJy1waHQnLCAnMi4wJywgJy1waCcsICc3LjQnLCAnLXRuJywgJzgnLCAnLW1hJywgJzIwMCcsICctaW1hZScsICc8aW5maWxlLm1hZT4nLCAnLW9tYWUnLCAnPG91dGZpbGUubWFlPic=

> <r_lp_tautomer_probability>
1

> <r_epik_Ionization_Penalty>
  1.5722

> <r_epik_Ionization_Penalty_Charging>
  0.0000

> <r_epik_Ionization_Penalty_Neutral>
  1.5722

> <r_epik_State_Penalty>
  1.1563

> <r_epik_Charging_Adjusted_Penalty>
1.15633

> <i_epik_Tot_Q>
0

> <i_epik_Tot_abs_Q>
0

> <s_lp_Force_Field>
OPLS3e

> <r_lp_Energy>
108.489

> <b_lp_Chiralities_Consistent>
1

> <s_lp_Variant>
lig22-3

> <s_i_glide_gridfile>
Sries53139-001-gridgen

> <i_i_glide_lignum>
72

> <i_i_glide_rotatable_bonds>
8

> <r_i_docking_score>
-8.21563167548076

> <r_i_glide_ligand_efficiency>
-0.191061201755367

> <r_i_glide_ligand_efficiency_sa>
-0.669363442805705

> <r_i_glide_ligand_efficiency_ln>
-1.72553798955035

> <r_i_glide_gscore>
-9.37196167548077

> <r_i_glide_lipo>
-3.85013817603563

> <r_i_glide_hbond>
-0.433058998701501

> <r_i_glide_metal>
-0

> <r_i_glide_rewards>
-2.10613863005392

> <r_i_glide_evdw>
-54.4865341186523

> <r_i_glide_ecoul>
-2.95094537734985

> <r_i_glide_erotb>
0.184444061111237

> <r_i_glide_esite>
-0.000101419265856673

> <r_i_glide_emodel>
-85.6391383113198

> <r_i_glide_energy>
-57.4374794960022

> <r_i_glide_einternal>
13.0985088348389

> <i_i_glide_confnum>
259

> <i_i_glide_posenum>
58

> <r_i_glide_eff_state_penalty>
1.15633

$$$$
