lig214
                    3D
 Schrodinger Suite 2023-4.
 68 71  0  0  1  0            999 V2000
   92.3742    3.2553   17.7827 C   0  0  0  0  0  0
   91.6319    3.5173   16.5981 O   0  0  0  0  0  0
   90.5721    2.6952   16.2711 C   0  0  0  0  0  0
   90.1893    1.5556   16.9979 C   0  0  0  0  0  0
   89.1018    0.7704   16.5841 C   0  0  0  0  0  0
   88.6441   -0.3521   17.2453 O   0  0  0  0  0  0
   89.3226   -0.8056   18.4095 C   0  0  0  0  0  0
   88.4145    1.1304   15.4268 C   0  0  0  0  0  0
   88.7723    2.2673   14.6984 C   0  0  0  0  0  0
   88.0827    2.5989   13.5123 N   0  0  0  0  0  0
   87.2909    3.8461   13.6101 C   0  0  0  0  0  0
   85.9474    3.7756   14.3852 C   0  0  2  0  0  0
   85.4670    2.4598   14.5827 O   0  0  0  0  0  0
   84.8286    4.6320   13.7624 C   0  0  0  0  0  0
   83.5393    4.4291   14.5827 N   0  3  0  0  0  0
   82.2989    5.2426   14.1772 C   0  0  0  0  0  0
   82.5180    6.7307   14.5058 C   0  0  0  0  0  0
   81.0955    4.6422   14.9223 C   0  0  0  0  0  0
   88.0133    1.7773   12.3521 C   0  0  0  0  0  0
   88.8660    0.6664   12.2587 C   0  0  0  0  0  0
   88.8755   -0.1758   11.1539 C   0  0  0  0  0  0
   88.0228    0.0864   10.0684 C   0  0  0  0  0  0
   88.0399   -0.7491    8.9947 N   0  0  0  0  0  0
   87.1706   -0.4827    7.9934 C   0  0  0  0  0  0
   86.2932    0.5990    8.0353 C   0  0  0  0  0  0
   85.3336    0.8425    6.9218 C   0  0  0  0  0  0
   84.4489    1.9173    6.7282 C   0  0  0  0  0  0
   83.7175    1.8066    5.6421 N   0  0  0  0  0  0
   84.1135    0.6566    5.0880 N   0  0  0  0  0  0
   83.4660    0.1870    3.8772 C   0  0  0  0  0  0
   85.0941    0.0366    5.8142 C   0  0  0  0  0  0
   86.2756    1.4573    9.0937 N   0  0  0  0  0  0
   87.1374    1.2057   10.1254 C   0  0  0  0  0  0
   87.1440    2.0374   11.2762 C   0  0  0  0  0  0
   89.8523    3.0392   15.1282 C   0  0  0  0  0  0
   93.1000    4.0537   17.9383 H   0  0  0  0  0  0
   91.7272    3.2217   18.6588 H   0  0  0  0  0  0
   92.9244    2.3170   17.7101 H   0  0  0  0  0  0
   90.7341    1.2827   17.8869 H   0  0  0  0  0  0
   88.8087   -1.6826   18.8009 H   0  0  0  0  0  0
   89.3356   -0.0497   19.1964 H   0  0  0  0  0  0
   90.3428   -1.1043   18.1757 H   0  0  0  0  0  0
   87.5790    0.5294   15.0998 H   0  0  0  0  0  0
   87.8903    4.5791   14.1567 H   0  0  0  0  0  0
   87.1428    4.2847   12.6249 H   0  0  0  0  0  0
   86.1485    4.1888   15.3778 H   0  0  0  0  0  0
   85.6228    2.3173   15.5477 H   0  0  0  0  0  0
   85.0623    5.6951   13.8187 H   0  0  0  0  0  0
   84.5945    4.3479   12.7352 H   0  0  0  0  0  0
   83.3172    3.4446   14.5127 H   0  0  0  0  0  0
   82.1978    5.0806   13.1016 H   0  0  0  0  0  0
   81.6255    7.3145   14.2776 H   0  0  0  0  0  0
   82.7428    6.8804   15.5632 H   0  0  0  0  0  0
   83.3320    7.1661   13.9263 H   0  0  0  0  0  0
   80.1717    5.1565   14.6564 H   0  0  0  0  0  0
   80.9572    3.5856   14.6847 H   0  0  0  0  0  0
   81.2122    4.7174   16.0054 H   0  0  0  0  0  0
   89.5547    0.4365   13.0574 H   0  0  0  0  0  0
   89.5428   -1.0258   11.1187 H   0  0  0  0  0  0
   87.1793   -1.1667    7.1581 H   0  0  0  0  0  0
   84.3428    2.7707    7.3830 H   0  0  0  0  0  0
   83.9429   -0.7297    3.5282 H   0  0  0  0  0  0
   82.4150   -0.0166    4.0863 H   0  0  0  0  0  0
   83.5425    0.9501    3.1020 H   0  0  0  0  0  0
   85.5003   -0.9140    5.5005 H   0  0  0  0  0  0
   86.4458    2.8577   11.2988 H   0  0  0  0  0  0
   90.1516    3.9063   14.5591 H   0  0  0  0  0  0
   83.7538    4.5760   15.5695 H   0  0  0  0  0  0
  1  2  1  0  0  0
  1 36  1  0  0  0
  1 37  1  0  0  0
  1 38  1  0  0  0
  2  3  1  0  0  0
  3 35  1  0  0  0
  3  4  2  0  0  0
  4  5  1  0  0  0
  4 39  1  0  0  0
  5  6  1  0  0  0
  5  8  2  0  0  0
  6  7  1  0  0  0
  7 40  1  0  0  0
  7 41  1  0  0  0
  7 42  1  0  0  0
  8  9  1  0  0  0
  8 43  1  0  0  0
  9 10  1  0  0  0
  9 35  2  0  0  0
 10 11  1  0  0  0
 10 19  1  0  0  0
 11 12  1  0  0  0
 11 44  1  0  0  0
 11 45  1  0  0  0
 12 13  1  0  0  0
 12 14  1  0  0  0
 12 46  1  0  0  0
 13 47  1  0  0  0
 14 15  1  0  0  0
 14 48  1  0  0  0
 14 49  1  0  0  0
 15 16  1  0  0  0
 15 50  1  0  0  0
 15 68  1  0  0  0
 16 17  1  0  0  0
 16 18  1  0  0  0
 16 51  1  0  0  0
 17 52  1  0  0  0
 17 53  1  0  0  0
 17 54  1  0  0  0
 18 55  1  0  0  0
 18 56  1  0  0  0
 18 57  1  0  0  0
 19 34  1  0  0  0
 19 20  2  0  0  0
 20 21  1  0  0  0
 20 58  1  0  0  0
 21 22  2  0  0  0
 21 59  1  0  0  0
 22 33  1  0  0  0
 22 23  1  0  0  0
 23 24  2  0  0  0
 24 25  1  0  0  0
 24 60  1  0  0  0
 25 26  1  0  0  0
 25 32  2  0  0  0
 26 31  2  0  0  0
 26 27  1  0  0  0
 27 28  2  0  0  0
 27 61  1  0  0  0
 28 29  1  0  0  0
 29 30  1  0  0  0
 29 31  1  0  0  0
 30 62  1  0  0  0
 30 63  1  0  0  0
 30 64  1  0  0  0
 31 65  1  0  0  0
 32 33  1  0  0  0
 33 34  2  0  0  0
 34 66  1  0  0  0
 35 67  1  0  0  0
M  CHG  1  15   1
M  END
> <i_epik_Tot_Q>
1

> <i_epik_Tot_abs_Q>
1

> <i_i_glide_confnum>
113

> <i_i_glide_lignum>
275

> <i_i_glide_posenum>
171

> <i_i_glide_rotatable_bonds>
11

> <i_lp_mmshare_version>
51139

> <i_m_source_file_index>
215

> <i_f3d_flags>
0

> <b_lp_Chiralities_Consistent>
1

> <r_epik_Charging_Adjusted_Penalty>
0.00639275

> <r_epik_Ionization_Penalty>
0.0038

> <r_epik_Ionization_Penalty_Charging>
0.0037

> <r_epik_Ionization_Penalty_Neutral>
0

> <r_epik_State_Penalty>
0.0027

> <r_i_docking_score>
-8.6779

> <r_i_glide_ecoul>
-16.2465

> <r_i_glide_eff_state_penalty>
0.00266004

> <r_i_glide_einternal>
18.2975

> <r_i_glide_emodel>
-96.0097

> <r_i_glide_energy>
-68.8031

> <r_i_glide_erotb>
0.621739

> <r_i_glide_esite>
-0.111492

> <r_i_glide_evdw>
-52.5567

> <r_i_glide_gscore>
-8.68056

> <r_i_glide_hbond>
-0.858958

> <r_i_glide_ligand_efficiency>
-0.24794

> <r_i_glide_ligand_efficiency_ln>
-1.90499

> <r_i_glide_ligand_efficiency_sa>
-0.811028

> <r_i_glide_lipo>
-3.36063

> <r_i_glide_metal>
-0

> <r_i_glide_rewards>
0.0935817

> <r_lp_Energy>
61.8069

> <r_lp_tautomer_probability>
1

> <s_epik_cmdline>
J2VwaWtfcHl0aG9uJywgJy1waHQnLCAnMi4wJywgJy1waCcsICc3LjQnLCAnLXRuJywgJzgnLCAnLW1hJywgJzIwMCcsICctaW1hZScsICc8aW5maWxlLm1hZT4nLCAnLW9tYWUnLCAnPG91dGZpbGUubWFlPic=

> <s_epik_input>
W0NIM11PYzFbY0hdYyhPW0NIM10pW2NIXWMoW2NIXTEpTihbQ0gyXVtDQEhdKFtPSF0pW0NIMl1bTkhdW0NIXShbQ0gzXSlbQ0gzXSljKFtjSF1bY0hdMilbY0hdYyhjMjMpbmMoW2NIXW4zKS1jNFtjSF1ubihbQ0gzXSlbY0hdNA==

> <s_i_glide_gridfile>
Sries43413-001-gridgen

> <s_lp_Force_Field>
OPLS3e

> <s_lp_Variant>
lig214-1

> <s_m_source_file>
/home/user-home/yujie/0_PBCNetv2/data/0_0_high_sim/0_noncov/Sries43413/ligprep_input.csv

$$$$
