lig295
                    3D
 Schrodinger Suite 2023-4.
 65 68  0  0  1  0            999 V2000
   92.3855    3.1851   17.7675 C   0  0  0  0  0  0
   91.6283    3.3992   16.5811 O   0  0  0  0  0  0
   90.5453    2.5835   16.3164 C   0  0  0  0  0  0
   90.1983    1.4513   17.0677 C   0  0  0  0  0  0
   89.0918    0.6694   16.7091 C   0  0  0  0  0  0
   88.6630   -0.4507   17.3870 O   0  0  0  0  0  0
   89.3524   -0.8660   18.5540 C   0  0  0  0  0  0
   88.3427    1.0287   15.5934 C   0  0  0  0  0  0
   88.6344    2.1745   14.8566 C   0  0  0  0  0  0
   87.8291    2.4976   13.7350 N   0  0  0  0  0  0
   87.4293    3.9189   13.6500 C   0  0  0  0  0  0
   86.0429    4.3943   14.1823 C   0  0  2  0  0  0
   86.2599    5.1165   15.3826 O   0  0  0  0  0  0
   84.8928    3.3608   14.3337 C   0  0  0  0  0  0
   83.6403    4.0338   14.9630 N   0  3  0  0  0  0
   82.3350    3.2202   14.8912 C   0  0  0  0  0  0
   81.1263    4.1713   14.9825 C   0  0  0  0  0  0
   81.1031    4.9992   13.9379 F   0  0  0  0  0  0
   79.9737    3.5023   14.9818 F   0  0  0  0  0  0
   81.1635    4.9236   16.0818 F   0  0  0  0  0  0
   87.8387    1.7512   12.5199 C   0  0  0  0  0  0
   88.7105    0.6594   12.3750 C   0  0  0  0  0  0
   88.7637   -0.0993   11.2104 C   0  0  0  0  0  0
   87.9425    0.2256   10.1185 C   0  0  0  0  0  0
   87.9910   -0.5387    8.9923 N   0  0  0  0  0  0
   87.1021   -0.2518    8.0115 C   0  0  0  0  0  0
   86.1787    0.7886    8.1244 C   0  0  0  0  0  0
   85.1696    1.0616    7.0586 C   0  0  0  0  0  0
   84.9055    0.3194    5.8925 C   0  0  0  0  0  0
   83.9328    0.8124    5.1607 N   0  0  0  0  0  0
   83.5403    1.9033    5.8240 N   0  0  0  0  0  0
   82.4390    2.6950    5.3079 C   0  0  0  0  0  0
   84.2510    2.0981    6.9778 C   0  0  0  0  0  0
   86.1511    1.5925    9.2250 N   0  0  0  0  0  0
   87.0260    1.3141   10.2362 C   0  0  0  0  0  0
   86.9959    2.0696   11.4376 C   0  0  0  0  0  0
   89.7614    2.9270   15.2155 C   0  0  0  0  0  0
   93.1421    3.9644   17.8615 H   0  0  0  0  0  0
   91.7518    3.2294   18.6528 H   0  0  0  0  0  0
   92.9027    2.2260   17.7521 H   0  0  0  0  0  0
   90.7897    1.1778   17.9259 H   0  0  0  0  0  0
   88.7914   -1.6827   18.9968 H   0  0  0  0  0  0
   89.4292   -0.0744   19.3015 H   0  0  0  0  0  0
   90.3427   -1.2392   18.3041 H   0  0  0  0  0  0
   87.4980    0.4209   15.3139 H   0  0  0  0  0  0
   88.1603    4.5269   14.1829 H   0  0  0  0  0  0
   87.5406    4.2612   12.6230 H   0  0  0  0  0  0
   85.7046    5.1469   13.4680 H   0  0  0  0  0  0
   86.1351    4.5014   16.1263 H   0  0  0  0  0  0
   84.5769    2.9828   13.3606 H   0  0  0  0  0  0
   85.1518    2.5217   14.9820 H   0  0  0  0  0  0
   83.8893    4.2011   15.9567 H   0  0  0  0  0  0
   82.3361    2.6725   13.9477 H   0  0  0  0  0  0
   82.4001    2.5171   15.7233 H   0  0  0  0  0  0
   89.3791    0.3784   13.1748 H   0  0  0  0  0  0
   89.4476   -0.9346   11.1359 H   0  0  0  0  0  0
   87.1285   -0.8874    7.1399 H   0  0  0  0  0  0
   85.4056   -0.5891    5.5941 H   0  0  0  0  0  0
   82.3309    3.6083    5.8949 H   0  0  0  0  0  0
   82.6324    2.9609    4.2680 H   0  0  0  0  0  0
   81.5145    2.1188    5.3720 H   0  0  0  0  0  0
   84.0478    2.9415    7.6216 H   0  0  0  0  0  0
   86.2826    2.8757   11.5051 H   0  0  0  0  0  0
   90.0579    3.7828   14.6297 H   0  0  0  0  0  0
   83.5045    4.9371   14.5305 H   0  0  0  0  0  0
  1  2  1  0  0  0
  1 38  1  0  0  0
  1 39  1  0  0  0
  1 40  1  0  0  0
  2  3  1  0  0  0
  3 37  1  0  0  0
  3  4  2  0  0  0
  4  5  1  0  0  0
  4 41  1  0  0  0
  5  6  1  0  0  0
  5  8  2  0  0  0
  6  7  1  0  0  0
  7 42  1  0  0  0
  7 43  1  0  0  0
  7 44  1  0  0  0
  8  9  1  0  0  0
  8 45  1  0  0  0
  9 10  1  0  0  0
  9 37  2  0  0  0
 10 11  1  0  0  0
 10 21  1  0  0  0
 11 12  1  0  0  0
 11 46  1  0  0  0
 11 47  1  0  0  0
 12 13  1  0  0  0
 12 14  1  0  0  0
 12 48  1  0  0  0
 13 49  1  0  0  0
 14 15  1  0  0  0
 14 50  1  0  0  0
 14 51  1  0  0  0
 15 16  1  0  0  0
 15 52  1  0  0  0
 15 65  1  0  0  0
 16 17  1  0  0  0
 16 53  1  0  0  0
 16 54  1  0  0  0
 17 18  1  0  0  0
 17 19  1  0  0  0
 17 20  1  0  0  0
 21 36  1  0  0  0
 21 22  2  0  0  0
 22 23  1  0  0  0
 22 55  1  0  0  0
 23 24  2  0  0  0
 23 56  1  0  0  0
 24 35  1  0  0  0
 24 25  1  0  0  0
 25 26  2  0  0  0
 26 27  1  0  0  0
 26 57  1  0  0  0
 27 28  1  0  0  0
 27 34  2  0  0  0
 28 33  2  0  0  0
 28 29  1  0  0  0
 29 30  2  0  0  0
 29 58  1  0  0  0
 30 31  1  0  0  0
 31 32  1  0  0  0
 31 33  1  0  0  0
 32 59  1  0  0  0
 32 60  1  0  0  0
 32 61  1  0  0  0
 33 62  1  0  0  0
 34 35  1  0  0  0
 35 36  2  0  0  0
 36 63  1  0  0  0
 37 64  1  0  0  0
M  CHG  1  15   1
M  END
> <i_epik_Tot_Q>
1

> <i_epik_Tot_abs_Q>
1

> <i_i_glide_confnum>
266

> <i_i_glide_lignum>
374

> <i_i_glide_posenum>
34

> <i_i_glide_rotatable_bonds>
12

> <i_lp_mmshare_version>
51139

> <i_m_source_file_index>
296

> <i_f3d_flags>
0

> <b_lp_Chiralities_Consistent>
1

> <r_epik_Charging_Adjusted_Penalty>
2.08692

> <r_epik_Ionization_Penalty>
1.0185

> <r_epik_Ionization_Penalty_Charging>
1.0184

> <r_epik_Ionization_Penalty_Neutral>
0

> <r_epik_State_Penalty>
1.0685

> <r_i_docking_score>
-8.32308

> <r_i_glide_ecoul>
-17.6527

> <r_i_glide_eff_state_penalty>
1.0685

> <r_i_glide_einternal>
21.6832

> <r_i_glide_emodel>
-100.829

> <r_i_glide_energy>
-68.0011

> <r_i_glide_erotb>
0.6133

> <r_i_glide_esite>
-0.278791

> <r_i_glide_evdw>
-50.3484

> <r_i_glide_gscore>
-9.39158

> <r_i_glide_hbond>
-0.749107

> <r_i_glide_ligand_efficiency>
-0.224948

> <r_i_glide_ligand_efficiency_ln>
-1.80508

> <r_i_glide_ligand_efficiency_sa>
-0.749577

> <r_i_glide_lipo>
-3.18989

> <r_i_glide_metal>
-0

> <r_i_glide_rewards>
-0.621775

> <r_lp_Energy>
61.6473

> <r_lp_tautomer_probability>
1

> <s_epik_cmdline>
J2VwaWtfcHl0aG9uJywgJy1waHQnLCAnMi4wJywgJy1waCcsICc3LjQnLCAnLXRuJywgJzgnLCAnLW1hJywgJzIwMCcsICctaW1hZScsICc8aW5maWxlLm1hZT4nLCAnLW9tYWUnLCAnPG91dGZpbGUubWFlPic=

> <s_epik_input>
W0NIM11PYzFbY0hdYyhPW0NIM10pW2NIXWMoW2NIXTEpTihbQ0gyXVtDQEhdKFtPSF0pW0NIMl1bTkhdW0NIMl1DKEYpKEYpRiljKFtjSF1bY0hdMilbY0hdYyhjMjMpbmMoW2NIXW4zKS1jNFtjSF1ubihbQ0gzXSlbY0hdNA==

> <s_i_glide_gridfile>
Sries43413-001-gridgen

> <s_lp_Force_Field>
OPLS3e

> <s_lp_Variant>
lig295-2

> <s_m_source_file>
/home/user-home/yujie/0_PBCNetv2/data/0_0_high_sim/0_noncov/Sries43408/ligprep_input.csv

$$$$
