lig51
                    3D
 Schrodinger Suite 2023-4.
 56 59  0  0  1  0            999 V2000
   92.4074    2.9678   17.8397 C   0  0  0  0  0  0
   91.8118    3.0358   16.5492 O   0  0  0  0  0  0
   90.7268    2.2265   16.2790 C   0  0  0  0  0  0
   90.2230    1.2361   17.1304 C   0  0  0  0  0  0
   89.0892    0.4874   16.7737 C   0  0  0  0  0  0
   88.5140   -0.4771   17.5732 O   0  0  0  0  0  0
   88.9946   -0.6525   18.8973 C   0  0  0  0  0  0
   88.4644    0.7366   15.5517 C   0  0  0  0  0  0
   88.9371    1.7306   14.6932 C   0  0  0  0  0  0
   88.2059    2.0687   13.5263 N   0  0  0  0  0  0
   87.9030    3.5169   13.4311 C   0  0  0  0  0  0
   86.7971    4.1292   14.3154 C   0  0  2  0  0  0
   87.3385    4.7225   15.6215 C   0  0  0  0  0  0
   85.7329    3.2422   14.5829 O   0  0  0  0  0  0
   88.0965    1.3160   12.3217 C   0  0  0  0  0  0
   88.8018    0.1129   12.1750 C   0  0  0  0  0  0
   88.7415   -0.6459   11.0038 C   0  0  0  0  0  0
   87.9870   -0.1695    9.9093 C   0  0  0  0  0  0
   87.9687   -0.8824    8.7548 N   0  0  0  0  0  0
   87.1332   -0.4773    7.7764 C   0  0  0  0  0  0
   86.3119    0.6373    7.9249 C   0  0  0  0  0  0
   85.2955    0.9767    6.8917 C   0  0  0  0  0  0
   84.4166    2.0725    6.8236 C   0  0  0  0  0  0
   83.6297    2.0511    5.7712 N   0  0  0  0  0  0
   83.9746    0.9343    5.1193 N   0  0  0  0  0  0
   83.2717    0.5644    3.9048 C   0  0  0  0  0  0
   84.9748    0.2481    5.7539 C   0  0  0  0  0  0
   86.3696    1.4149    9.0419 N   0  0  0  0  0  0
   87.2100    1.0178   10.0432 C   0  0  0  0  0  0
   87.2745    1.7388   11.2566 C   0  0  0  0  0  0
   90.0974    2.4321   15.0609 C   0  0  0  0  0  0
   93.1503    3.7586   17.9246 H   0  0  0  0  0  0
   91.6787    3.1249   18.6369 H   0  0  0  0  0  0
   92.9146    2.0097   17.9808 H   0  0  0  0  0  0
   90.7123    1.0486   18.0723 H   0  0  0  0  0  0
   88.2664   -1.2522   19.4403 H   0  0  0  0  0  0
   89.0914    0.2931   19.4383 H   0  0  0  0  0  0
   89.9436   -1.1858   18.9127 H   0  0  0  0  0  0
   87.5747    0.1847   15.2918 H   0  0  0  0  0  0
   88.8223    3.9513   13.7831 H   0  0  0  0  0  0
   87.7666    3.8779   12.4130 H   0  0  0  0  0  0
   86.3448    4.9576   13.7633 H   0  0  0  0  0  0
   88.0338    5.5452   15.4276 H   0  0  0  0  0  0
   86.5195    5.1365   16.2057 H   0  0  0  0  0  0
   87.8753    3.9816   16.2219 H   0  0  0  0  0  0
   85.7438    3.0777   15.5592 H   0  0  0  0  0  0
   89.4175   -0.2560   12.9764 H   0  0  0  0  0  0
   89.2218   -1.6208   10.9240 H   0  0  0  0  0  0
   87.0978   -1.0999    6.8936 H   0  0  0  0  0  0
   84.3631    2.8778    7.5435 H   0  0  0  0  0  0
   83.6860   -0.3609    3.5046 H   0  0  0  0  0  0
   82.2178    0.4141    4.1316 H   0  0  0  0  0  0
   83.3884    1.3504    3.1642 H   0  0  0  0  0  0
   85.3378   -0.6913    5.3656 H   0  0  0  0  0  0
   86.6393    2.6077   11.3398 H   0  0  0  0  0  0
   90.5282    3.1754   14.4119 H   0  0  0  0  0  0
  1  2  1  0  0  0
  1 32  1  0  0  0
  1 33  1  0  0  0
  1 34  1  0  0  0
  2  3  1  0  0  0
  3 31  1  0  0  0
  3  4  2  0  0  0
  4  5  1  0  0  0
  4 35  1  0  0  0
  5  6  1  0  0  0
  5  8  2  0  0  0
  6  7  1  0  0  0
  7 36  1  0  0  0
  7 37  1  0  0  0
  7 38  1  0  0  0
  8  9  1  0  0  0
  8 39  1  0  0  0
  9 10  1  0  0  0
  9 31  2  0  0  0
 10 11  1  0  0  0
 10 15  1  0  0  0
 11 12  1  0  0  0
 11 40  1  0  0  0
 11 41  1  0  0  0
 12 13  1  0  0  0
 12 14  1  0  0  0
 12 42  1  0  0  0
 13 43  1  0  0  0
 13 44  1  0  0  0
 13 45  1  0  0  0
 14 46  1  0  0  0
 15 30  1  0  0  0
 15 16  2  0  0  0
 16 17  1  0  0  0
 16 47  1  0  0  0
 17 18  2  0  0  0
 17 48  1  0  0  0
 18 29  1  0  0  0
 18 19  1  0  0  0
 19 20  2  0  0  0
 20 21  1  0  0  0
 20 49  1  0  0  0
 21 22  1  0  0  0
 21 28  2  0  0  0
 22 27  2  0  0  0
 22 23  1  0  0  0
 23 24  2  0  0  0
 23 50  1  0  0  0
 24 25  1  0  0  0
 25 26  1  0  0  0
 25 27  1  0  0  0
 26 51  1  0  0  0
 26 52  1  0  0  0
 26 53  1  0  0  0
 27 54  1  0  0  0
 28 29  1  0  0  0
 29 30  2  0  0  0
 30 55  1  0  0  0
 31 56  1  0  0  0
M  END
> <i_epik_Tot_Q>
0

> <i_epik_Tot_abs_Q>
0

> <i_i_glide_confnum>
77

> <i_i_glide_lignum>
58

> <i_i_glide_posenum>
164

> <i_i_glide_rotatable_bonds>
8

> <i_lp_mmshare_version>
51139

> <i_m_source_file_index>
52

> <i_f3d_flags>
0

> <b_lp_Chiralities_Consistent>
1

> <r_epik_Charging_Adjusted_Penalty>
0

> <r_epik_Ionization_Penalty>
0

> <r_epik_Ionization_Penalty_Charging>
0

> <r_epik_Ionization_Penalty_Neutral>
0

> <r_epik_State_Penalty>
-0

> <r_i_docking_score>
-8.57957

> <r_i_glide_ecoul>
-10.7417

> <r_i_glide_eff_state_penalty>
-0

> <r_i_glide_einternal>
19.487

> <r_i_glide_emodel>
-77.9415

> <r_i_glide_energy>
-55.5166

> <r_i_glide_erotb>
0.562164

> <r_i_glide_esite>
0

> <r_i_glide_evdw>
-44.7749

> <r_i_glide_gscore>
-8.57957

> <r_i_glide_hbond>
-0.751012

> <r_i_glide_ligand_efficiency>
-0.27676

> <r_i_glide_ligand_efficiency_ln>
-1.93495

> <r_i_glide_ligand_efficiency_sa>
-0.869409

> <r_i_glide_lipo>
-3.39488

> <r_i_glide_metal>
-0

> <r_i_glide_rewards>
-1.14584

> <r_lp_Energy>
55.4308

> <r_lp_tautomer_probability>
1

> <s_epik_cmdline>
J2VwaWtfcHl0aG9uJywgJy1waHQnLCAnMi4wJywgJy1waCcsICc3LjQnLCAnLXRuJywgJzgnLCAnLW1hJywgJzIwMCcsICctaW1hZScsICc8aW5maWxlLm1hZT4nLCAnLW9tYWUnLCAnPG91dGZpbGUubWFlPic=

> <s_epik_input>
W0NIM11PYzFbY0hdYyhPW0NIM10pW2NIXWMoW2NIXTEpTihbQ0gyXVtDQEhdKFtDSDNdKVtPSF0pYyhbY0hdW2NIXTIpW2NIXWMoYzIzKW5jKFtjSF1uMyktYzRbY0hdbm4oW0NIM10pW2NIXTQ=

> <s_i_glide_gridfile>
Sries43413-001-gridgen

> <s_lp_Force_Field>
OPLS3e

> <s_lp_Variant>
lig51-1

> <s_m_source_file>
/home/user-home/yujie/0_PBCNetv2/data/0_0_high_sim/0_noncov/Sries43408/ligprep_input.csv

$$$$
