lig203
                    3D
 Schrodinger Suite 2023-4.
 60 63  0  0  1  0            999 V2000
   84.1669    6.7909   13.2516 C   0  0  0  0  0  0
   84.8403    5.5694   12.9876 O   0  0  0  0  0  0
   84.7087    4.6084   14.0323 C   0  0  0  0  0  0
   85.5147    3.3467   13.6660 C   0  0  2  0  0  0
   85.2135    2.3173   14.5827 O   0  0  0  0  0  0
   87.0386    3.6420   13.5892 C   0  0  0  0  0  0
   87.9454    2.4822   13.4323 N   0  0  0  0  0  0
   88.6634    2.1778   14.6120 C   0  0  0  0  0  0
   89.7268    2.9840   15.0270 C   0  0  0  0  0  0
   90.4612    2.6749   16.1747 C   0  0  0  0  0  0
   91.5082    3.5173   16.4943 O   0  0  0  0  0  0
   92.2544    3.2835   17.6854 C   0  0  0  0  0  0
   90.1076    1.5403   16.9213 C   0  0  0  0  0  0
   89.0412    0.7211   16.5244 C   0  0  0  0  0  0
   88.6205   -0.4025   17.2075 O   0  0  0  0  0  0
   89.3105   -0.8024   18.3852 C   0  0  0  0  0  0
   88.3426    1.0455   15.3632 C   0  0  0  0  0  0
   87.9424    1.7044   12.2412 C   0  0  0  0  0  0
   88.7436    0.5542   12.1721 C   0  0  0  0  0  0
   88.7607   -0.2731   11.0550 C   0  0  0  0  0  0
   87.9604    0.0387    9.9430 C   0  0  0  0  0  0
   87.9711   -0.7917    8.8677 N   0  0  0  0  0  0
   87.1430   -0.4827    7.8452 C   0  0  0  0  0  0
   86.2917    0.6185    7.8789 C   0  0  0  0  0  0
   85.3128    0.8454    6.7789 C   0  0  0  0  0  0
   84.4283    1.9178    6.5795 C   0  0  0  0  0  0
   83.6727    1.7853    5.5120 N   0  0  0  0  0  0
   84.0436    0.6152    4.9832 N   0  0  0  0  0  0
   83.3744    0.1234    3.7929 C   0  0  0  0  0  0
   85.0411    0.0119    5.6997 C   0  0  0  0  0  0
   86.2987    1.4867    8.9298 N   0  0  0  0  0  0
   87.1353    1.2031    9.9736 C   0  0  0  0  0  0
   87.1664    2.0402   11.1167 C   0  0  0  0  0  0
   84.3117    7.4751   12.4154 H   0  0  0  0  0  0
   83.0940    6.6353   13.3746 H   0  0  0  0  0  0
   84.5561    7.2745   14.1488 H   0  0  0  0  0  0
   83.6545    4.3540   14.1629 H   0  0  0  0  0  0
   85.0625    5.0177   14.9814 H   0  0  0  0  0  0
   85.1492    2.9923   12.7042 H   0  0  0  0  0  0
   85.5428    2.5457   15.4790 H   0  0  0  0  0  0
   87.3191    4.2223   14.4712 H   0  0  0  0  0  0
   87.1740    4.3173   12.7457 H   0  0  0  0  0  0
   89.9942    3.8538   14.4465 H   0  0  0  0  0  0
   93.0048    4.0658   17.7999 H   0  0  0  0  0  0
   91.6171    3.3075   18.5709 H   0  0  0  0  0  0
   92.7782    2.3270   17.6494 H   0  0  0  0  0  0
   90.6607    1.2965   17.8135 H   0  0  0  0  0  0
   88.8231   -1.6827   18.8001 H   0  0  0  0  0  0
   89.2945   -0.0254   19.1513 H   0  0  0  0  0  0
   90.3428   -1.0720   18.1643 H   0  0  0  0  0  0
   87.5225    0.4184   15.0499 H   0  0  0  0  0  0
   89.3752    0.2741   13.0014 H   0  0  0  0  0  0
   89.3816   -1.1584   11.0380 H   0  0  0  0  0  0
   87.1422   -1.1716    7.0139 H   0  0  0  0  0  0
   84.3414    2.7858    7.2180 H   0  0  0  0  0  0
   83.7697   -0.8557    3.5180 H   0  0  0  0  0  0
   82.3051    0.0315    3.9906 H   0  0  0  0  0  0
   83.5344    0.8222    2.9709 H   0  0  0  0  0  0
   85.4350   -0.9487    5.4016 H   0  0  0  0  0  0
   86.5568    2.9281   11.0961 H   0  0  0  0  0  0
  1  2  1  0  0  0
  1 34  1  0  0  0
  1 35  1  0  0  0
  1 36  1  0  0  0
  2  3  1  0  0  0
  3  4  1  0  0  0
  3 37  1  0  0  0
  3 38  1  0  0  0
  4  5  1  0  0  0
  4  6  1  0  0  0
  4 39  1  0  0  0
  5 40  1  0  0  0
  6  7  1  0  0  0
  6 41  1  0  0  0
  6 42  1  0  0  0
  7  8  1  0  0  0
  7 18  1  0  0  0
  8 17  1  0  0  0
  8  9  2  0  0  0
  9 10  1  0  0  0
  9 43  1  0  0  0
 10 11  1  0  0  0
 10 13  2  0  0  0
 11 12  1  0  0  0
 12 44  1  0  0  0
 12 45  1  0  0  0
 12 46  1  0  0  0
 13 14  1  0  0  0
 13 47  1  0  0  0
 14 15  1  0  0  0
 14 17  2  0  0  0
 15 16  1  0  0  0
 16 48  1  0  0  0
 16 49  1  0  0  0
 16 50  1  0  0  0
 17 51  1  0  0  0
 18 33  1  0  0  0
 18 19  2  0  0  0
 19 20  1  0  0  0
 19 52  1  0  0  0
 20 21  2  0  0  0
 20 53  1  0  0  0
 21 32  1  0  0  0
 21 22  1  0  0  0
 22 23  2  0  0  0
 23 24  1  0  0  0
 23 54  1  0  0  0
 24 25  1  0  0  0
 24 31  2  0  0  0
 25 30  2  0  0  0
 25 26  1  0  0  0
 26 27  2  0  0  0
 26 55  1  0  0  0
 27 28  1  0  0  0
 28 29  1  0  0  0
 28 30  1  0  0  0
 29 56  1  0  0  0
 29 57  1  0  0  0
 29 58  1  0  0  0
 30 59  1  0  0  0
 31 32  1  0  0  0
 32 33  2  0  0  0
 33 60  1  0  0  0
M  END
> <i_epik_Tot_Q>
0

> <i_epik_Tot_abs_Q>
0

> <i_i_glide_confnum>
110

> <i_i_glide_lignum>
258

> <i_i_glide_posenum>
29

> <i_i_glide_rotatable_bonds>
10

> <i_lp_mmshare_version>
51139

> <i_m_source_file_index>
204

> <i_f3d_flags>
0

> <b_lp_Chiralities_Consistent>
1

> <r_epik_Charging_Adjusted_Penalty>
0

> <r_epik_Ionization_Penalty>
0

> <r_epik_Ionization_Penalty_Charging>
0

> <r_epik_Ionization_Penalty_Neutral>
0

> <r_epik_State_Penalty>
-0

> <r_i_docking_score>
-7.56667

> <r_i_glide_ecoul>
-10.2937

> <r_i_glide_eff_state_penalty>
-0

> <r_i_glide_einternal>
16.4694

> <r_i_glide_emodel>
-81.3853

> <r_i_glide_energy>
-64.6054

> <r_i_glide_erotb>
0.595136

> <r_i_glide_esite>
-0.0143496

> <r_i_glide_evdw>
-54.3117

> <r_i_glide_gscore>
-7.56667

> <r_i_glide_hbond>
-0.689302

> <r_i_glide_ligand_efficiency>
-0.229293

> <r_i_glide_ligand_efficiency_ln>
-1.68279

> <r_i_glide_ligand_efficiency_sa>
-0.735465

> <r_i_glide_lipo>
-3.38391

> <r_i_glide_metal>
-0

> <r_i_glide_rewards>
0.185404

> <r_lp_Energy>
57.8635

> <r_lp_tautomer_probability>
1

> <s_epik_cmdline>
J2VwaWtfcHl0aG9uJywgJy1waHQnLCAnMi4wJywgJy1waCcsICc3LjQnLCAnLXRuJywgJzgnLCAnLW1hJywgJzIwMCcsICctaW1hZScsICc8aW5maWxlLm1hZT4nLCAnLW9tYWUnLCAnPG91dGZpbGUubWFlPic=

> <s_epik_input>
W0NIM11PYyhbY0hdMSlbY0hdYyhPW0NIM10pW2NIXWMxTihbQ0gyXVtDQEBIXShbT0hdKVtDSDJdT1tDSDNdKWMoW2NIXVtjSF0yKVtjSF1jKGMyMyluYyhbY0hdbjMpLWM0W2NIXW5uKFtDSDNdKVtjSF00

> <s_i_glide_gridfile>
Sries43413-001-gridgen

> <s_lp_Force_Field>
OPLS3e

> <s_lp_Variant>
lig203-1

> <s_m_source_file>
/home/user-home/yujie/0_PBCNetv2/data/0_0_high_sim/0_noncov/Sries43408/ligprep_input.csv

$$$$
