Thrombin_1b
                    3D
 Schrodinger Suite 2020-3.
 51 53  0  0  1  0            999 V2000
   16.2314  -15.7958   22.8130 N   0  0  0  0  0  0
   17.5051  -15.0686   22.9564 C   0  0  2  0  0  0
   18.0334  -15.1821   24.4079 C   0  0  0  0  0  0
   19.4010  -14.5818   24.6896 C   0  0  0  0  0  0
   19.5141  -13.3843   25.4267 C   0  0  0  0  0  0
   20.7608  -12.8117   25.6362 C   0  0  0  0  0  0
   21.9036  -13.4118   25.1208 C   0  0  0  0  0  0
   21.8069  -14.5887   24.3870 C   0  0  0  0  0  0
   20.5686  -15.1743   24.1600 C   0  0  0  0  0  0
   17.2509  -13.5993   22.4952 C   0  0  0  0  0  0
   16.2936  -12.9852   22.9833 O   0  0  0  0  0  0
   18.0758  -13.0612   21.5614 N   0  0  0  0  0  0
   19.2576  -13.7132   20.9900 C   0  0  0  0  0  0
   20.0650  -12.5978   20.3442 C   0  0  0  0  0  0
   19.0014  -11.5986   19.9186 C   0  0  0  0  0  0
   17.8753  -11.7203   20.9611 C   0  0  1  0  0  0
   16.4901  -11.5303   20.3103 C   0  0  0  0  0  0
   16.0635  -12.3878   19.5358 O   0  0  0  0  0  0
   15.8210  -10.4192   20.6516 N   0  0  0  0  0  0
   14.4470  -10.1180   20.2388 C   0  0  0  0  0  0
   13.4455  -10.2861   21.3763 C   0  0  0  0  0  0
   12.6546  -11.4373   21.4756 C   0  0  0  0  0  0
   11.7192  -11.5632   22.5056 C   0  0  0  0  0  0
   11.5560  -10.5352   23.4355 C   0  0  0  0  0  0
   12.3397   -9.3844   23.3402 C   0  0  0  0  0  0
   12.2097   -8.1331   24.5225 Cl  0  0  0  0  0  0
   13.2719   -9.2596   22.3087 C   0  0  0  0  0  0
   15.5343  -15.3814   23.4258 H   0  0  0  0  0  0
   15.8648  -15.7095   21.8769 H   0  0  0  0  0  0
   18.2141  -15.5760   22.3035 H   0  0  0  0  0  0
   18.0887  -16.2371   24.6762 H   0  0  0  0  0  0
   17.3075  -14.7534   25.1026 H   0  0  0  0  0  0
   18.6337  -12.9224   25.8469 H   0  0  0  0  0  0
   20.8435  -11.8986   26.2114 H   0  0  0  0  0  0
   22.8751  -12.9720   25.3033 H   0  0  0  0  0  0
   22.7014  -15.0551   23.9964 H   0  0  0  0  0  0
   20.5001  -16.0870   23.5845 H   0  0  0  0  0  0
   19.8701  -14.2337   21.7286 H   0  0  0  0  0  0
   18.9266  -14.4412   20.2483 H   0  0  0  0  0  0
   20.7119  -12.1433   21.0960 H   0  0  0  0  0  0
   20.6923  -12.9405   19.5200 H   0  0  0  0  0  0
   19.3958  -10.5845   19.8540 H   0  0  0  0  0  0
   18.6402  -11.8716   18.9266 H   0  0  0  0  0  0
   18.0225  -10.9864   21.7550 H   0  0  0  0  0  0
   16.2680   -9.7590   21.2776 H   0  0  0  0  0  0
   14.4111   -9.0880   19.8797 H   0  0  0  0  0  0
   14.1262  -10.7276   19.3902 H   0  0  0  0  0  0
   12.7684  -12.2409   20.7599 H   0  0  0  0  0  0
   11.1167  -12.4573   22.5866 H   0  0  0  0  0  0
   10.8287  -10.6368   24.2310 H   0  0  0  0  0  0
   13.8806   -8.3678   22.2517 H   0  0  0  0  0  0
  1 28  1  0  0  0
  1 29  1  0  0  0
  1  2  1  0  0  0
  2  3  1  0  0  0
  2 10  1  0  0  0
  2 30  1  0  0  0
  3  4  1  0  0  0
  3 31  1  0  0  0
  3 32  1  0  0  0
  4  9  1  0  0  0
  4  5  2  0  0  0
  5  6  1  0  0  0
  5 33  1  0  0  0
  6  7  2  0  0  0
  6 34  1  0  0  0
  7  8  1  0  0  0
  7 35  1  0  0  0
  8  9  2  0  0  0
  8 36  1  0  0  0
  9 37  1  0  0  0
 10 11  2  0  0  0
 10 12  1  0  0  0
 12 16  1  0  0  0
 12 13  1  0  0  0
 13 14  1  0  0  0
 13 38  1  0  0  0
 13 39  1  0  0  0
 14 15  1  0  0  0
 14 40  1  0  0  0
 14 41  1  0  0  0
 15 16  1  0  0  0
 15 42  1  0  0  0
 15 43  1  0  0  0
 16 17  1  0  0  0
 16 44  1  0  0  0
 17 18  2  0  0  0
 17 19  1  0  0  0
 19 20  1  0  0  0
 19 45  1  0  0  0
 20 21  1  0  0  0
 20 46  1  0  0  0
 20 47  1  0  0  0
 21 27  1  0  0  0
 21 22  2  0  0  0
 22 23  1  0  0  0
 22 48  1  0  0  0
 23 24  2  0  0  0
 23 49  1  0  0  0
 24 25  1  0  0  0
 24 50  1  0  0  0
 25 26  1  0  0  0
 25 27  2  0  0  0
 27 51  1  0  0  0
M  END
> <s_m_source_file>
/home/user-home/yujie/0_PBCNetv2/data/FEP/Thrombin/inp_ligprep.csv

> <i_m_source_file_index>
8

> <i_lp_mmshare_version>
51139

> <i_f3d_flags>
0

> <s_epik_input>
W2NIXTFbY0hdW2NIXVtjSF1bY0hdYzFbQ0gyXVtDQEBIXShbTkgyXSlDKD1PKU4yW0NIMl1bQ0gyXVtDSDJdW0NASF0yQyg9TylbTkhdW0NIMl1jM1tjSF1bY0hdW2NIXWMoQ2wpW2NIXTM=

> <s_epik_cmdline>
J2VwaWtfcHl0aG9uJywgJy1waHQnLCAnMi4wJywgJy1waCcsICc3LjQnLCAnLXRuJywgJzgnLCAnLW1hJywgJzIwMCcsICctaW1hZScsICc8aW5maWxlLm1hZT4nLCAnLW9tYWUnLCAnPG91dGZpbGUubWFlPic=

> <r_epik_Ionization_Penalty>
  0.4406

> <r_epik_Ionization_Penalty_Charging>
  0.0000

> <r_epik_Ionization_Penalty_Neutral>
  0.4406

> <r_epik_State_Penalty>
  0.4427

> <r_epik_Charging_Adjusted_Penalty>
0.442674

> <i_epik_Tot_Q>
0

> <i_epik_Tot_abs_Q>
0

> <s_lp_Force_Field>
OPLS3e

> <r_lp_Energy>
40.1358

> <b_lp_Chiralities_Consistent>
1

> <s_lp_Variant>
Thrombin_1b-2

> <s_i_glide_gridfile>
Thrombin-001-gridgen

> <i_i_glide_lignum>
16

> <i_i_glide_rotatable_bonds>
8

> <r_i_docking_score>
-9.76191461544086

> <r_i_glide_ligand_efficiency>
-0.361552393164476

> <r_i_glide_ligand_efficiency_sa>
-1.08465717830181

> <r_i_glide_ligand_efficiency_ln>
-2.27241278473423

> <r_i_glide_gscore>
-10.2045886154409

> <r_i_glide_lipo>
-4.83049732228291

> <r_i_glide_hbond>
-0.864

> <r_i_glide_metal>
-0

> <r_i_glide_rewards>
-1.65188076025188

> <r_i_glide_evdw>
-48.028247833252

> <r_i_glide_ecoul>
-8.27206134796143

> <r_i_glide_erotb>
0.784011060950731

> <r_i_glide_esite>
0

> <r_i_glide_emodel>
-88.074168953706

> <r_i_glide_energy>
-56.3003091812134

> <r_i_glide_einternal>
4.811279296875

> <i_i_glide_confnum>
195

> <i_i_glide_posenum>
252

> <r_i_glide_eff_state_penalty>
0.442674

$$$$
