Thrombin_6a
                    3D
 Schrodinger Suite 2020-3.
 51 53  0  0  1  0            999 V2000
   16.1853  -15.7920   22.6539 N   0  0  0  0  0  0
   17.4571  -15.0604   22.8005 C   0  0  2  0  0  0
   17.9604  -15.1321   24.2685 C   0  0  0  0  0  0
   19.3270  -14.5259   24.5687 C   0  0  0  0  0  0
   20.5008  -15.0801   24.0169 C   0  0  0  0  0  0
   21.7341  -14.4996   24.2798 C   0  0  0  0  0  0
   21.8212  -13.3708   25.0839 C   0  0  0  0  0  0
   20.6774  -12.8132   25.6384 C   0  0  0  0  0  0
   19.4357  -13.3849   25.3938 C   0  0  0  0  0  0
   17.1935  -13.6019   22.3151 C   0  0  0  0  0  0
   16.2357  -12.9844   22.8006 O   0  0  0  0  0  0
   18.0273  -13.0668   21.3839 N   0  0  0  0  0  0
   19.2226  -13.7113   20.8356 C   0  0  0  0  0  0
   20.0556  -12.5796   20.2583 C   0  0  0  0  0  0
   19.0033  -11.5951   19.7880 C   0  0  0  0  0  0
   17.8465  -11.7184   20.7996 C   0  0  1  0  0  0
   16.4701  -11.4883   20.1354 C   0  0  0  0  0  0
   16.1187  -12.2036   19.1976 O   0  0  0  0  0  0
   15.7278  -10.4981   20.6532 N   0  0  0  0  0  0
   14.3646  -10.1506   20.2537 C   0  0  0  0  0  0
   13.3589  -10.3543   21.3869 C   0  0  0  0  0  0
   13.1662   -9.3159   22.3064 C   0  0  0  0  0  0
   12.2384   -9.4346   23.3409 C   0  0  0  0  0  0
   12.0928   -8.1666   24.5078 Cl  0  0  0  0  0  0
   11.4681  -10.5904   23.4523 C   0  0  0  0  0  0
   11.6552  -11.6378   22.5507 C   0  0  0  0  0  0
   12.5923  -11.5283   21.5174 C   0  0  0  0  0  0
   12.7621  -12.8532   20.4173 Cl  0  0  0  0  0  0
   16.2083  -16.6526   23.1809 H   0  0  0  0  0  0
   15.4436  -15.2396   23.0785 H   0  0  0  0  0  0
   18.1800  -15.5764   22.1734 H   0  0  0  0  0  0
   18.0119  -16.1785   24.5749 H   0  0  0  0  0  0
   17.2221  -14.6774   24.9318 H   0  0  0  0  0  0
   20.4488  -15.9568   23.3900 H   0  0  0  0  0  0
   22.6329  -14.9289   23.8622 H   0  0  0  0  0  0
   22.7878  -12.9313   25.2879 H   0  0  0  0  0  0
   20.7513  -11.9399   26.2725 H   0  0  0  0  0  0
   18.5514  -12.9771   25.8527 H   0  0  0  0  0  0
   19.8085  -14.2551   21.5708 H   0  0  0  0  0  0
   18.9179  -14.4084   20.0553 H   0  0  0  0  0  0
   20.6487  -12.1273   21.0553 H   0  0  0  0  0  0
   20.7404  -12.9019   19.4732 H   0  0  0  0  0  0
   19.4054  -10.5840   19.7500 H   0  0  0  0  0  0
   18.6822  -11.8651   18.7804 H   0  0  0  0  0  0
   18.0003  -10.9934   21.6014 H   0  0  0  0  0  0
   16.1391   -9.9412   21.3909 H   0  0  0  0  0  0
   14.3556   -9.1024   19.9505 H   0  0  0  0  0  0
   14.0367  -10.6977   19.3653 H   0  0  0  0  0  0
   13.7628   -8.4172   22.2393 H   0  0  0  0  0  0
   10.7413  -10.6866   24.2456 H   0  0  0  0  0  0
   11.0648  -12.5373   22.6521 H   0  0  0  0  0  0
  1 29  1  0  0  0
  1 30  1  0  0  0
  1  2  1  0  0  0
  2  3  1  0  0  0
  2 10  1  0  0  0
  2 31  1  0  0  0
  3  4  1  0  0  0
  3 32  1  0  0  0
  3 33  1  0  0  0
  4  9  1  0  0  0
  4  5  2  0  0  0
  5  6  1  0  0  0
  5 34  1  0  0  0
  6  7  2  0  0  0
  6 35  1  0  0  0
  7  8  1  0  0  0
  7 36  1  0  0  0
  8  9  2  0  0  0
  8 37  1  0  0  0
  9 38  1  0  0  0
 10 11  2  0  0  0
 10 12  1  0  0  0
 12 16  1  0  0  0
 12 13  1  0  0  0
 13 14  1  0  0  0
 13 39  1  0  0  0
 13 40  1  0  0  0
 14 15  1  0  0  0
 14 41  1  0  0  0
 14 42  1  0  0  0
 15 16  1  0  0  0
 15 43  1  0  0  0
 15 44  1  0  0  0
 16 17  1  0  0  0
 16 45  1  0  0  0
 17 18  2  0  0  0
 17 19  1  0  0  0
 19 20  1  0  0  0
 19 46  1  0  0  0
 20 21  1  0  0  0
 20 47  1  0  0  0
 20 48  1  0  0  0
 21 27  1  0  0  0
 21 22  2  0  0  0
 22 23  1  0  0  0
 22 49  1  0  0  0
 23 24  1  0  0  0
 23 25  2  0  0  0
 25 26  1  0  0  0
 25 50  1  0  0  0
 26 27  2  0  0  0
 26 51  1  0  0  0
 27 28  1  0  0  0
M  END
> <s_m_source_file>
/home/user-home/yujie/0_PBCNetv2/data/FEP/Thrombin/inp_ligprep.csv

> <i_m_source_file_index>
4

> <i_lp_mmshare_version>
51139

> <i_f3d_flags>
0

> <s_epik_input>
W2NIXTFbY0hdW2NIXVtjSF1bY0hdYzFbQ0gyXVtDQEBIXShbTkgyXSlDKD1PKU4yW0NIMl1bQ0gyXVtDSDJdW0NASF0yQyg9TylbTkhdW0NIMl1jM1tjSF1jKENsKVtjSF1bY0hdYzNDbA==

> <s_epik_cmdline>
J2VwaWtfcHl0aG9uJywgJy1waHQnLCAnMi4wJywgJy1waCcsICc3LjQnLCAnLXRuJywgJzgnLCAnLW1hJywgJzIwMCcsICctaW1hZScsICc8aW5maWxlLm1hZT4nLCAnLW9tYWUnLCAnPG91dGZpbGUubWFlPic=

> <r_epik_Ionization_Penalty>
  0.4406

> <r_epik_Ionization_Penalty_Charging>
  0.0000

> <r_epik_Ionization_Penalty_Neutral>
  0.4406

> <r_epik_State_Penalty>
  0.4427

> <r_epik_Charging_Adjusted_Penalty>
0.442674

> <i_epik_Tot_Q>
0

> <i_epik_Tot_abs_Q>
0

> <s_lp_Force_Field>
OPLS3e

> <r_lp_Energy>
37.4109

> <b_lp_Chiralities_Consistent>
1

> <s_lp_Variant>
Thrombin_6a-2

> <s_i_glide_gridfile>
Thrombin-001-gridgen

> <i_i_glide_lignum>
8

> <i_i_glide_rotatable_bonds>
8

> <r_i_docking_score>
-9.6809269397013

> <r_i_glide_ligand_efficiency>
-0.345747390703618

> <r_i_glide_ligand_efficiency_sa>
-1.04989271249924

> <r_i_glide_ligand_efficiency_ln>
-2.2346421820492

> <r_i_glide_gscore>
-10.1236009397013

> <r_i_glide_lipo>
-4.94491267278233

> <r_i_glide_hbond>
-0.78268115457871

> <r_i_glide_metal>
-0

> <r_i_glide_rewards>
-1.3996100116081

> <r_i_glide_evdw>
-50.8494606018066

> <r_i_glide_ecoul>
-7.50694227218628

> <r_i_glide_erotb>
0.672117270186111

> <r_i_glide_esite>
0

> <r_i_glide_emodel>
-91.2086100218667

> <r_i_glide_energy>
-58.3564028739929

> <r_i_glide_einternal>
5.56086540222168

> <i_i_glide_confnum>
11

> <i_i_glide_posenum>
244

> <r_i_glide_eff_state_penalty>
0.442674

$$$$
