Thrombin_1d
                    3D
 Schrodinger Suite 2020-3.
 52 54  0  0  1  0            999 V2000
   16.2341  -15.7055   22.7986 N   0  3  0  0  0  0
   17.5886  -15.0766   22.9486 C   0  0  2  0  0  0
   18.0966  -15.2542   24.4020 C   0  0  0  0  0  0
   19.4303  -14.5933   24.7220 C   0  0  0  0  0  0
   19.4678  -13.3862   25.4482 C   0  0  0  0  0  0
   20.6734  -12.7346   25.6699 C   0  0  0  0  0  0
   21.8529  -13.2738   25.1728 C   0  0  0  0  0  0
   21.8344  -14.4584   24.4451 C   0  0  0  0  0  0
   20.6355  -15.1187   24.2071 C   0  0  0  0  0  0
   17.3506  -13.6034   22.5261 C   0  0  0  0  0  0
   16.4203  -12.9853   23.0526 O   0  0  0  0  0  0
   18.1519  -13.0742   21.5640 N   0  0  0  0  0  0
   19.3436  -13.7067   20.9971 C   0  0  0  0  0  0
   20.1238  -12.5721   20.3472 C   0  0  0  0  0  0
   19.0380  -11.6071   19.9063 C   0  0  0  0  0  0
   17.9131  -11.7500   20.9493 C   0  0  1  0  0  0
   16.5191  -11.6196   20.3032 C   0  0  0  0  0  0
   16.1238  -12.4978   19.5358 O   0  0  0  0  0  0
   15.8096  -10.5388   20.6534 N   0  0  0  0  0  0
   14.4330  -10.2720   20.2352 C   0  0  0  0  0  0
   13.4411  -10.3899   21.3798 C   0  0  0  0  0  0
   12.6316  -11.5212   21.5290 C   0  0  0  0  0  0
   11.6921  -11.5833   22.5612 C   0  0  0  0  0  0
   11.5452  -10.5140   23.4448 C   0  0  0  0  0  0
   12.3532   -9.3829   23.3014 C   0  0  0  0  0  0
   12.2339   -7.7852   24.6532 I   0  0  0  0  0  0
   13.2858   -9.3212   22.2643 C   0  0  0  0  0  0
   15.9815  -15.7498   21.8211 H   0  0  0  0  0  0
   16.2356  -16.6317   23.2027 H   0  0  0  0  0  0
   18.2235  -15.6245   22.2523 H   0  0  0  0  0  0
   18.2156  -16.3190   24.6151 H   0  0  0  0  0  0
   17.3528  -14.8933   25.1160 H   0  0  0  0  0  0
   18.5571  -12.9771   25.8529 H   0  0  0  0  0  0
   20.6926  -11.8136   26.2358 H   0  0  0  0  0  0
   22.7927  -12.7732   25.3563 H   0  0  0  0  0  0
   22.7598  -14.8719   24.0703 H   0  0  0  0  0  0
   20.6303  -16.0317   23.6270 H   0  0  0  0  0  0
   19.9611  -14.2139   21.7366 H   0  0  0  0  0  0
   19.0297  -14.4384   20.2517 H   0  0  0  0  0  0
   20.7492  -12.0903   21.0973 H   0  0  0  0  0  0
   20.7721  -12.9021   19.5343 H   0  0  0  0  0  0
   19.4053  -10.5843   19.8518 H   0  0  0  0  0  0
   18.6868  -11.8875   18.9118 H   0  0  0  0  0  0
   18.0439  -10.9971   21.7295 H   0  0  0  0  0  0
   16.2436   -9.8597   21.2669 H   0  0  0  0  0  0
   14.3921   -9.2521   19.8518 H   0  0  0  0  0  0
   14.1123  -10.9091   19.4070 H   0  0  0  0  0  0
   12.7280  -12.3518   20.8455 H   0  0  0  0  0  0
   11.0664  -12.4574   22.6723 H   0  0  0  0  0  0
   10.8153  -10.5648   24.2410 H   0  0  0  0  0  0
   13.9081   -8.4427   22.1697 H   0  0  0  0  0  0
   15.5611  -15.1228   23.2896 H   0  0  0  0  0  0
  1 28  1  0  0  0
  1 29  1  0  0  0
  1  2  1  0  0  0
  1 52  1  0  0  0
  2  3  1  0  0  0
  2 10  1  0  0  0
  2 30  1  0  0  0
  3  4  1  0  0  0
  3 31  1  0  0  0
  3 32  1  0  0  0
  4  9  1  0  0  0
  4  5  2  0  0  0
  5  6  1  0  0  0
  5 33  1  0  0  0
  6  7  2  0  0  0
  6 34  1  0  0  0
  7  8  1  0  0  0
  7 35  1  0  0  0
  8  9  2  0  0  0
  8 36  1  0  0  0
  9 37  1  0  0  0
 10 11  2  0  0  0
 10 12  1  0  0  0
 12 16  1  0  0  0
 12 13  1  0  0  0
 13 14  1  0  0  0
 13 38  1  0  0  0
 13 39  1  0  0  0
 14 15  1  0  0  0
 14 40  1  0  0  0
 14 41  1  0  0  0
 15 16  1  0  0  0
 15 42  1  0  0  0
 15 43  1  0  0  0
 16 17  1  0  0  0
 16 44  1  0  0  0
 17 18  2  0  0  0
 17 19  1  0  0  0
 19 20  1  0  0  0
 19 45  1  0  0  0
 20 21  1  0  0  0
 20 46  1  0  0  0
 20 47  1  0  0  0
 21 27  1  0  0  0
 21 22  2  0  0  0
 22 23  1  0  0  0
 22 48  1  0  0  0
 23 24  2  0  0  0
 23 49  1  0  0  0
 24 25  1  0  0  0
 24 50  1  0  0  0
 25 26  1  0  0  0
 25 27  2  0  0  0
 27 51  1  0  0  0
M  CHG  1   1   1
M  END
> <s_m_source_file>
/home/user-home/yujie/0_PBCNetv2/data/FEP/Thrombin/inp_ligprep.csv

> <i_m_source_file_index>
10

> <i_lp_mmshare_version>
51139

> <i_f3d_flags>
0

> <s_epik_input>
W2NIXTFbY0hdW2NIXVtjSF1bY0hdYzFbQ0gyXVtDQEBIXShbTkgyXSlDKD1PKU4yW0NIMl1bQ0gyXVtDSDJdW0NASF0yQyg9TylbTkhdW0NIMl1jM1tjSF1bY0hdW2NIXWMoSSlbY0hdMw==

> <s_epik_cmdline>
J2VwaWtfcHl0aG9uJywgJy1waHQnLCAnMi4wJywgJy1waCcsICc3LjQnLCAnLXRuJywgJzgnLCAnLW1hJywgJzIwMCcsICctaW1hZScsICc8aW5maWxlLm1hZT4nLCAnLW9tYWUnLCAnPG91dGZpbGUubWFlPic=

> <r_epik_Ionization_Penalty>
  0.3822

> <r_epik_Ionization_Penalty_Charging>
  0.3822

> <r_epik_Ionization_Penalty_Neutral>
  0.0000

> <r_epik_State_Penalty>
  0.3803

> <r_epik_Charging_Adjusted_Penalty>
0.762511

> <i_epik_Tot_Q>
1

> <i_epik_Tot_abs_Q>
1

> <s_lp_Force_Field>
OPLS3e

> <r_lp_Energy>
35.5639

> <b_lp_Chiralities_Consistent>
1

> <s_lp_Variant>
Thrombin_1d-1

> <s_i_glide_gridfile>
Thrombin-001-gridgen

> <i_i_glide_lignum>
19

> <i_i_glide_rotatable_bonds>
8

> <r_i_docking_score>
-9.40919290936224

> <r_i_glide_ligand_efficiency>
-0.348488626272676

> <r_i_glide_ligand_efficiency_sa>
-1.04546587766947

> <r_i_glide_ligand_efficiency_ln>
-2.19030498663092

> <r_i_glide_gscore>
-9.78951790936224

> <r_i_glide_lipo>
-4.81043151097463

> <r_i_glide_hbond>
-0.586359494943655

> <r_i_glide_metal>
-0

> <r_i_glide_rewards>
-1.00478322139033

> <r_i_glide_evdw>
-50.3167915344238

> <r_i_glide_ecoul>
-9.27426624298096

> <r_i_glide_erotb>
0.531357122395282

> <r_i_glide_esite>
-0.0123212912805808

> <r_i_glide_emodel>
-93.6103122133585

> <r_i_glide_energy>
-59.5910577774048

> <r_i_glide_einternal>
4.7080192565918

> <i_i_glide_confnum>
9

> <i_i_glide_posenum>
53

> <r_i_glide_eff_state_penalty>
0.380325

$$$$
