Thrombin_6e
                    3D
 Schrodinger Suite 2024-1.
 51 53  0  0  1  0            999 V2000
   16.6227  -15.9691   22.4494 N   0  0  0  0  0  0
   17.8255  -15.1491   22.6920 C   0  0  2  0  0  0
   18.3285  -15.3257   24.1468 C   0  0  0  0  0  0
   19.6157  -14.6028   24.5164 C   0  0  0  0  0  0
   19.5752  -13.3843   25.2274 C   0  0  0  0  0  0
   20.7470  -12.6904   25.4960 C   0  0  0  0  0  0
   21.9656  -13.1853   25.0529 C   0  0  0  0  0  0
   22.0224  -14.3708   24.3329 C   0  0  0  0  0  0
   20.8594  -15.0774   24.0525 C   0  0  0  0  0  0
   17.4764  -13.6683   22.3413 C   0  0  0  0  0  0
   16.5222  -13.1277   22.9092 O   0  0  0  0  0  0
   18.2411  -13.0287   21.4189 N   0  0  0  0  0  0
   19.4828  -13.5368   20.8316 C   0  0  0  0  0  0
   20.1822  -12.3141   20.2638 C   0  0  0  0  0  0
   19.0292  -11.4136   19.8632 C   0  0  0  0  0  0
   17.9165  -11.6849   20.8926 C   0  0  1  0  0  0
   16.5163  -11.5792   20.2501 C   0  0  0  0  0  0
   16.1635  -12.4197   19.4211 O   0  0  0  0  0  0
   15.7556  -10.5464   20.6535 N   0  0  0  0  0  0
   14.3779  -10.2862   20.2243 C   0  0  0  0  0  0
   13.3759  -10.4411   21.3645 C   0  0  0  0  0  0
   13.1683   -9.3840   22.2542 C   0  0  0  0  0  0
   12.2346   -9.4905   23.2881 C   0  0  0  0  0  0
   12.0774   -8.2036   24.4298 Cl  0  0  0  0  0  0
   11.4767  -10.6536   23.4233 C   0  0  0  0  0  0
   11.6818  -11.7167   22.5412 C   0  0  0  0  0  0
   12.6238  -11.6142   21.5157 C   0  0  0  0  0  0
   12.7842  -12.6481   20.6578 F   0  0  0  0  0  0
   16.3097  -15.9110   21.4906 H   0  0  0  0  0  0
   16.7813  -16.9447   22.6530 H   0  0  0  0  0  0
   18.5952  -15.5465   22.0334 H   0  0  0  0  0  0
   18.4899  -16.3875   24.3373 H   0  0  0  0  0  0
   17.5444  -15.0287   24.8454 H   0  0  0  0  0  0
   18.6352  -12.9844   25.5748 H   0  0  0  0  0  0
   20.7085  -11.7620   26.0479 H   0  0  0  0  0  0
   22.8754  -12.6460   25.2702 H   0  0  0  0  0  0
   22.9773  -14.7473   23.9956 H   0  0  0  0  0  0
   20.9136  -15.9913   23.4793 H   0  0  0  0  0  0
   20.1345  -14.0354   21.5497 H   0  0  0  0  0  0
   19.2326  -14.2424   20.0387 H   0  0  0  0  0  0
   20.7607  -11.8316   21.0516 H   0  0  0  0  0  0
   20.8648  -12.5466   19.4456 H   0  0  0  0  0  0
   19.3295  -10.3677   19.8540 H   0  0  0  0  0  0
   18.7055  -11.6750   18.8543 H   0  0  0  0  0  0
   18.0066  -10.9806   21.7211 H   0  0  0  0  0  0
   16.1625   -9.8906   21.3050 H   0  0  0  0  0  0
   14.3434   -9.2637   19.8530 H   0  0  0  0  0  0
   14.0814  -10.9224   19.3884 H   0  0  0  0  0  0
   13.7562   -8.4820   22.1672 H   0  0  0  0  0  0
   10.7449  -10.7410   24.2136 H   0  0  0  0  0  0
   11.0987  -12.6194   22.6514 H   0  0  0  0  0  0
  1 29  1  0  0  0
  1 30  1  0  0  0
  1  2  1  0  0  0
  2  3  1  0  0  0
  2 10  1  0  0  0
  2 31  1  0  0  0
  3  4  1  0  0  0
  3 32  1  0  0  0
  3 33  1  0  0  0
  4  9  1  0  0  0
  4  5  2  0  0  0
  5  6  1  0  0  0
  5 34  1  0  0  0
  6  7  2  0  0  0
  6 35  1  0  0  0
  7  8  1  0  0  0
  7 36  1  0  0  0
  8  9  2  0  0  0
  8 37  1  0  0  0
  9 38  1  0  0  0
 10 11  2  0  0  0
 10 12  1  0  0  0
 12 16  1  0  0  0
 12 13  1  0  0  0
 13 14  1  0  0  0
 13 39  1  0  0  0
 13 40  1  0  0  0
 14 15  1  0  0  0
 14 41  1  0  0  0
 14 42  1  0  0  0
 15 16  1  0  0  0
 15 43  1  0  0  0
 15 44  1  0  0  0
 16 17  1  0  0  0
 16 45  1  0  0  0
 17 18  2  0  0  0
 17 19  1  0  0  0
 19 20  1  0  0  0
 19 46  1  0  0  0
 20 21  1  0  0  0
 20 47  1  0  0  0
 20 48  1  0  0  0
 21 27  1  0  0  0
 21 22  2  0  0  0
 22 23  1  0  0  0
 22 49  1  0  0  0
 23 24  1  0  0  0
 23 25  2  0  0  0
 25 26  1  0  0  0
 25 50  1  0  0  0
 26 27  2  0  0  0
 26 51  1  0  0  0
 27 28  1  0  0  0
M  END
> <Tot Q>
0

> <Source File Index>
41

> <i_f3d_flags>
0

> <subgroup collapsed>
0

> <Ionization Penalty>
0.4406

> <State Penalty>
0.4427

> <docking score>
-9.04522

> <glide emodel>
-82.29

> <glide gscore>
-9.48789

> <Source File>
ThrombinThrombin_dock_SP_confgen_100_lib.maegz

> <Source Path>
C:\Users\yujie\AppData\Roaming\MobaXterm\slash\tmp\dragdrop

> <entry id>
8901

> <subgroup title>
ThrombinThrombin_dock_SP_confgen_100_lib

> <subgroupid>
ThrombinThrombin_dock_SP_confgen_100_lib

$$$$
