Thrombin_5
                    3D
 Schrodinger Suite 2020-3.
 52 54  0  0  1  0            999 V2000
   16.2346  -15.6948   23.0419 N   0  3  0  0  0  0
   17.5753  -15.0153   23.0635 C   0  0  2  0  0  0
   18.1595  -15.0474   24.5007 C   0  0  0  0  0  0
   19.5839  -14.5334   24.6521 C   0  0  0  0  0  0
   19.8386  -13.2275   25.1255 C   0  0  0  0  0  0
   21.1421  -12.7599   25.2229 C   0  0  0  0  0  0
   22.2049  -13.5664   24.8352 C   0  0  0  0  0  0
   21.9690  -14.8397   24.3303 C   0  0  0  0  0  0
   20.6715  -15.3242   24.2242 C   0  0  0  0  0  0
   17.2732  -13.5825   22.5486 C   0  0  0  0  0  0
   16.3120  -12.9843   23.0398 O   0  0  0  0  0  0
   18.0640  -13.0609   21.5753 N   0  0  0  0  0  0
   19.2466  -13.7064   20.9992 C   0  0  0  0  0  0
   20.0311  -12.5863   20.3286 C   0  0  0  0  0  0
   18.9541  -11.6000   19.9146 C   0  0  0  0  0  0
   17.8495  -11.7213   20.9790 C   0  0  1  0  0  0
   16.4530  -11.5198   20.3578 C   0  0  0  0  0  0
   15.9720  -12.4025   19.6441 O   0  0  0  0  0  0
   15.8347  -10.3634   20.6535 N   0  0  0  0  0  0
   14.4560  -10.0376   20.2841 C   0  0  0  0  0  0
   13.4254  -10.5251   21.2982 C   0  0  0  0  0  0
   12.8716   -9.6308   22.2211 C   0  0  0  0  0  0
   11.8809  -10.0643   23.1027 C   0  0  0  0  0  0
   11.4433  -11.3845   23.0532 C   0  0  0  0  0  0
   11.9888  -12.2805   22.1371 C   0  0  0  0  0  0
   12.9721  -11.8469   21.2507 C   0  0  0  0  0  0
   15.9453  -15.8510   22.0865 H   0  0  0  0  0  0
   16.2815  -16.5700   23.5433 H   0  0  0  0  0  0
   18.1884  -15.6032   22.3776 H   0  0  0  0  0  0
   18.1723  -16.0764   24.8629 H   0  0  0  0  0  0
   17.5173  -14.5002   25.1955 H   0  0  0  0  0  0
   19.0347  -12.5856   25.4467 H   0  0  0  0  0  0
   21.3297  -11.7673   25.6127 H   0  0  0  0  0  0
   23.2190  -13.2010   24.9300 H   0  0  0  0  0  0
   22.8018  -15.4594   24.0293 H   0  0  0  0  0  0
   20.5038  -16.3160   23.8278 H   0  0  0  0  0  0
   19.8708  -14.2121   21.7376 H   0  0  0  0  0  0
   18.9211  -14.4378   20.2578 H   0  0  0  0  0  0
   20.6915  -12.1138   21.0541 H   0  0  0  0  0  0
   20.6489  -12.9299   19.4981 H   0  0  0  0  0  0
   19.3425  -10.5840   19.8505 H   0  0  0  0  0  0
   18.5775  -11.8742   18.9285 H   0  0  0  0  0  0
   18.0199  -10.9861   21.7686 H   0  0  0  0  0  0
   16.3211   -9.6956   21.2437 H   0  0  0  0  0  0
   14.3691   -8.9555   20.1650 H   0  0  0  0  0  0
   14.2041  -10.4643   19.3096 H   0  0  0  0  0  0
   13.2045   -8.6032   22.2603 H   0  0  0  0  0  0
   11.4483   -9.3832   23.8195 H   0  0  0  0  0  0
   10.6671  -11.7194   23.7310 H   0  0  0  0  0  0
   11.6382  -13.3018   22.1111 H   0  0  0  0  0  0
   13.3852  -12.5395   20.5309 H   0  0  0  0  0  0
   15.5602  -15.0793   23.4950 H   0  0  0  0  0  0
  1 27  1  0  0  0
  1 28  1  0  0  0
  1  2  1  0  0  0
  1 52  1  0  0  0
  2  3  1  0  0  0
  2 10  1  0  0  0
  2 29  1  0  0  0
  3  4  1  0  0  0
  3 30  1  0  0  0
  3 31  1  0  0  0
  4  9  1  0  0  0
  4  5  2  0  0  0
  5  6  1  0  0  0
  5 32  1  0  0  0
  6  7  2  0  0  0
  6 33  1  0  0  0
  7  8  1  0  0  0
  7 34  1  0  0  0
  8  9  2  0  0  0
  8 35  1  0  0  0
  9 36  1  0  0  0
 10 11  2  0  0  0
 10 12  1  0  0  0
 12 16  1  0  0  0
 12 13  1  0  0  0
 13 14  1  0  0  0
 13 37  1  0  0  0
 13 38  1  0  0  0
 14 15  1  0  0  0
 14 39  1  0  0  0
 14 40  1  0  0  0
 15 16  1  0  0  0
 15 41  1  0  0  0
 15 42  1  0  0  0
 16 17  1  0  0  0
 16 43  1  0  0  0
 17 18  2  0  0  0
 17 19  1  0  0  0
 19 20  1  0  0  0
 19 44  1  0  0  0
 20 21  1  0  0  0
 20 45  1  0  0  0
 20 46  1  0  0  0
 21 26  1  0  0  0
 21 22  2  0  0  0
 22 23  1  0  0  0
 22 47  1  0  0  0
 23 24  2  0  0  0
 23 48  1  0  0  0
 24 25  1  0  0  0
 24 49  1  0  0  0
 25 26  2  0  0  0
 25 50  1  0  0  0
 26 51  1  0  0  0
M  CHG  1   1   1
M  END
> <s_m_source_file>
/home/user-home/yujie/0_PBCNetv2/data/FEP/Thrombin/inp_ligprep.csv

> <i_m_source_file_index>
3

> <i_lp_mmshare_version>
51139

> <i_f3d_flags>
0

> <s_epik_input>
W2NIXTFbY0hdW2NIXVtjSF1bY0hdYzFbQ0gyXVtDQEBIXShbTkgyXSlDKD1PKU4yW0NIMl1bQ0gyXVtDSDJdW0NASF0yQyg9TylbTkhdW0NIMl1jM1tjSF1bY0hdW2NIXVtjSF1bY0hdMw==

> <s_epik_cmdline>
J2VwaWtfcHl0aG9uJywgJy1waHQnLCAnMi4wJywgJy1waCcsICc3LjQnLCAnLXRuJywgJzgnLCAnLW1hJywgJzIwMCcsICctaW1hZScsICc8aW5maWxlLm1hZT4nLCAnLW9tYWUnLCAnPG91dGZpbGUubWFlPic=

> <r_epik_Ionization_Penalty>
  0.3822

> <r_epik_Ionization_Penalty_Charging>
  0.3822

> <r_epik_Ionization_Penalty_Neutral>
  0.0000

> <r_epik_State_Penalty>
  0.3803

> <r_epik_Charging_Adjusted_Penalty>
0.762511

> <i_epik_Tot_Q>
1

> <i_epik_Tot_abs_Q>
1

> <s_lp_Force_Field>
OPLS3e

> <r_lp_Energy>
35.5563

> <b_lp_Chiralities_Consistent>
1

> <s_lp_Variant>
Thrombin_5-1

> <s_i_glide_gridfile>
Thrombin-001-gridgen

> <i_i_glide_lignum>
5

> <i_i_glide_rotatable_bonds>
8

> <r_i_docking_score>
-9.28468768569834

> <r_i_glide_ligand_efficiency>
-0.357103372526859

> <r_i_glide_ligand_efficiency_sa>
-1.0579173359769

> <r_i_glide_ligand_efficiency_ln>
-2.18047843744108

> <r_i_glide_gscore>
-9.66501268569834

> <r_i_glide_lipo>
-4.36900216168322

> <r_i_glide_hbond>
-0.608

> <r_i_glide_metal>
-0

> <r_i_glide_rewards>
-1.86455440901253

> <r_i_glide_evdw>
-44.1102027893066

> <r_i_glide_ecoul>
-10.1392402648926

> <r_i_glide_erotb>
0.921826395697577

> <r_i_glide_esite>
-0.0188863315009415

> <r_i_glide_emodel>
-84.5504285983274

> <r_i_glide_energy>
-54.2494430541992

> <r_i_glide_einternal>
5.18318033218384

> <i_i_glide_confnum>
135

> <i_i_glide_posenum>
74

> <r_i_glide_eff_state_penalty>
0.380325

$$$$
