Thrombin_1c
                    3D
 Schrodinger Suite 2020-3.
 52 54  0  0  1  0            999 V2000
   16.1632  -15.7260   22.8120 N   0  3  0  0  0  0
   17.5080  -15.0717   22.9456 C   0  0  2  0  0  0
   18.0442  -15.2430   24.3911 C   0  0  0  0  0  0
   19.3852  -14.5858   24.6880 C   0  0  0  0  0  0
   19.4369  -13.3861   25.4283 C   0  0  0  0  0  0
   20.6491  -12.7412   25.6325 C   0  0  0  0  0  0
   21.8194  -13.2732   25.1071 C   0  0  0  0  0  0
   21.7854  -14.4513   24.3681 C   0  0  0  0  0  0
   20.5795  -15.1046   24.1473 C   0  0  0  0  0  0
   17.2483  -13.5990   22.5236 C   0  0  0  0  0  0
   16.3163  -12.9849   23.0532 O   0  0  0  0  0  0
   18.0403  -13.0595   21.5610 N   0  0  0  0  0  0
   19.2300  -13.6929   20.9863 C   0  0  0  0  0  0
   20.0032  -12.5662   20.3219 C   0  0  0  0  0  0
   18.9094  -11.6030   19.8952 C   0  0  0  0  0  0
   17.8093  -11.7257   20.9641 C   0  0  1  0  0  0
   16.4077  -11.5478   20.3475 C   0  0  0  0  0  0
   15.9452  -12.4393   19.6309 O   0  0  0  0  0  0
   15.7658  -10.4112   20.6533 N   0  0  0  0  0  0
   14.3886  -10.1031   20.2638 C   0  0  0  0  0  0
   13.3999  -10.2858   21.4110 C   0  0  0  0  0  0
   12.6342  -11.4521   21.5157 C   0  0  0  0  0  0
   11.6923  -11.5847   22.5395 C   0  0  0  0  0  0
   11.4943  -10.5480   23.4530 C   0  0  0  0  0  0
   12.2606   -9.3846   23.3573 C   0  0  0  0  0  0
   12.0721   -7.9967   24.6532 Br  0  0  0  0  0  0
   13.1996   -9.2539   22.3329 C   0  0  0  0  0  0
   15.8933  -15.7612   21.8392 H   0  0  0  0  0  0
   16.1928  -16.6570   23.1996 H   0  0  0  0  0  0
   18.1381  -15.6159   22.2414 H   0  0  0  0  0  0
   18.1617  -16.3065   24.6060 H   0  0  0  0  0  0
   17.3137  -14.8806   25.1185 H   0  0  0  0  0  0
   18.5346  -12.9768   25.8533 H   0  0  0  0  0  0
   20.6779  -11.8247   26.2075 H   0  0  0  0  0  0
   22.7636  -12.7736   25.2785 H   0  0  0  0  0  0
   22.7001  -14.8626   23.9691 H   0  0  0  0  0  0
   20.5629  -16.0130   23.5611 H   0  0  0  0  0  0
   19.8566  -14.1878   21.7289 H   0  0  0  0  0  0
   18.9133  -14.4341   20.2531 H   0  0  0  0  0  0
   20.6426  -12.0797   21.0576 H   0  0  0  0  0  0
   20.6364  -12.9061   19.5004 H   0  0  0  0  0  0
   19.2820  -10.5834   19.8150 H   0  0  0  0  0  0
   18.5341  -11.8993   18.9133 H   0  0  0  0  0  0
   17.9753  -10.9846   21.7481 H   0  0  0  0  0  0
   16.2467   -9.7296   21.2315 H   0  0  0  0  0  0
   14.3478   -9.0686   19.9236 H   0  0  0  0  0  0
   14.0598  -10.6996   19.4101 H   0  0  0  0  0  0
   12.7691  -12.2574   20.8083 H   0  0  0  0  0  0
   11.1003  -12.4870   22.6214 H   0  0  0  0  0  0
   10.7608  -10.6533   24.2429 H   0  0  0  0  0  0
   13.7922   -8.3525   22.2732 H   0  0  0  0  0  0
   15.4900  -15.1626   23.3257 H   0  0  0  0  0  0
  1 28  1  0  0  0
  1 29  1  0  0  0
  1  2  1  0  0  0
  1 52  1  0  0  0
  2  3  1  0  0  0
  2 10  1  0  0  0
  2 30  1  0  0  0
  3  4  1  0  0  0
  3 31  1  0  0  0
  3 32  1  0  0  0
  4  9  1  0  0  0
  4  5  2  0  0  0
  5  6  1  0  0  0
  5 33  1  0  0  0
  6  7  2  0  0  0
  6 34  1  0  0  0
  7  8  1  0  0  0
  7 35  1  0  0  0
  8  9  2  0  0  0
  8 36  1  0  0  0
  9 37  1  0  0  0
 10 11  2  0  0  0
 10 12  1  0  0  0
 12 16  1  0  0  0
 12 13  1  0  0  0
 13 14  1  0  0  0
 13 38  1  0  0  0
 13 39  1  0  0  0
 14 15  1  0  0  0
 14 40  1  0  0  0
 14 41  1  0  0  0
 15 16  1  0  0  0
 15 42  1  0  0  0
 15 43  1  0  0  0
 16 17  1  0  0  0
 16 44  1  0  0  0
 17 18  2  0  0  0
 17 19  1  0  0  0
 19 20  1  0  0  0
 19 45  1  0  0  0
 20 21  1  0  0  0
 20 46  1  0  0  0
 20 47  1  0  0  0
 21 27  1  0  0  0
 21 22  2  0  0  0
 22 23  1  0  0  0
 22 48  1  0  0  0
 23 24  2  0  0  0
 23 49  1  0  0  0
 24 25  1  0  0  0
 24 50  1  0  0  0
 25 26  1  0  0  0
 25 27  2  0  0  0
 27 51  1  0  0  0
M  CHG  1   1   1
M  END
> <s_m_source_file>
/home/user-home/yujie/0_PBCNetv2/data/FEP/Thrombin/inp_ligprep.csv

> <i_m_source_file_index>
2

> <i_lp_mmshare_version>
51139

> <i_f3d_flags>
0

> <s_epik_input>
W2NIXTFbY0hdW2NIXVtjSF1bY0hdYzFbQ0gyXVtDQEBIXShbTkgyXSlDKD1PKU4yW0NIMl1bQ0gyXVtDSDJdW0NASF0yQyg9TylbTkhdW0NIMl1jM1tjSF1bY0hdW2NIXWMoQnIpW2NIXTM=

> <s_epik_cmdline>
J2VwaWtfcHl0aG9uJywgJy1waHQnLCAnMi4wJywgJy1waCcsICc3LjQnLCAnLXRuJywgJzgnLCAnLW1hJywgJzIwMCcsICctaW1hZScsICc8aW5maWxlLm1hZT4nLCAnLW9tYWUnLCAnPG91dGZpbGUubWFlPic=

> <r_epik_Ionization_Penalty>
  0.3822

> <r_epik_Ionization_Penalty_Charging>
  0.3822

> <r_epik_Ionization_Penalty_Neutral>
  0.0000

> <r_epik_State_Penalty>
  0.3803

> <r_epik_Charging_Adjusted_Penalty>
0.762511

> <i_epik_Tot_Q>
1

> <i_epik_Tot_abs_Q>
1

> <s_lp_Force_Field>
OPLS3e

> <r_lp_Energy>
35.8287

> <b_lp_Chiralities_Consistent>
1

> <s_lp_Variant>
Thrombin_1c-1

> <s_i_glide_gridfile>
Thrombin-001-gridgen

> <i_i_glide_lignum>
3

> <i_i_glide_rotatable_bonds>
8

> <r_i_docking_score>
-9.5973346172511

> <r_i_glide_ligand_efficiency>
-0.355456837675967

> <r_i_glide_ligand_efficiency_sa>
-1.06637051185637

> <r_i_glide_ligand_efficiency_ln>
-2.23410127446898

> <r_i_glide_gscore>
-9.9776596172511

> <r_i_glide_lipo>
-4.7832516112185

> <r_i_glide_hbond>
-0.608

> <r_i_glide_metal>
-0

> <r_i_glide_rewards>
-1.34056076669254

> <r_i_glide_evdw>
-48.4313125610352

> <r_i_glide_ecoul>
-9.67144966125488

> <r_i_glide_erotb>
0.641377856295504

> <r_i_glide_esite>
-0.0149420183955803

> <r_i_glide_emodel>
-91.8777208651978

> <r_i_glide_energy>
-58.10276222229

> <r_i_glide_einternal>
4.66138362884521

> <i_i_glide_confnum>
87

> <i_i_glide_posenum>
23

> <r_i_glide_eff_state_penalty>
0.380325

$$$$
