A2
                    3D
 Schrodinger Suite 2024-1.
 35 38  0  0  1  0            999 V2000
   42.0184   -1.1478    8.2832 F   0  0  0  0  0  0
   42.3138    0.1418    8.5601 C   0  0  0  0  0  0
   43.5752    0.4891    9.0727 C   0  0  0  0  0  0
   43.8607    1.8396    9.3574 C   0  0  0  0  0  0
   42.9292    2.8443    9.0281 C   0  0  0  0  0  0
   43.2274    4.2036    9.1262 N   0  0  0  0  0  0
   44.6112    4.5783    9.2731 C   0  0  1  0  0  0
   44.8095    6.1011    9.3097 C   0  0  0  0  0  0
   45.3358    6.7486    8.1760 C   0  0  0  0  0  0
   45.4558    8.1486    8.1609 C   0  0  0  0  0  0
   45.0464    8.8586    9.2978 C   0  0  0  0  0  0
   44.5230    8.2722   10.3846 N   0  0  0  0  0  0
   44.4156    6.9231   10.3931 C   0  0  0  0  0  0
   45.2660    3.7263   10.3752 C   0  0  2  0  0  0
   45.0556    2.1928   10.2098 C   0  0  1  0  0  0
   44.7902    1.7407   11.6214 C   0  0  0  0  0  0
   44.6693    2.7434   12.4733 C   0  0  0  0  0  0
   44.8060    4.0758   11.8062 C   0  0  0  0  0  0
   41.6455    2.4838    8.6208 C   0  0  0  0  0  0
   40.7303    3.4689    8.4792 F   0  0  0  0  0  0
   41.3307    1.1298    8.3899 C   0  0  0  0  0  0
   44.3008   -0.2808    9.2939 H   0  0  0  0  0  0
   42.4977    4.8757    9.3761 H   0  0  0  0  0  0
   45.0830    4.2496    8.3530 H   0  0  0  0  0  0
   45.6233    6.1860    7.3056 H   0  0  0  0  0  0
   45.8615    8.6595    7.3027 H   0  0  0  0  0  0
   45.1252    9.9353    9.3283 H   0  0  0  0  0  0
   43.9537    6.5237   11.2792 H   0  0  0  0  0  0
   46.3371    3.8292   10.3204 H   0  0  0  0  0  0
   45.9507    1.7081    9.8151 H   0  0  0  0  0  0
   44.6160    0.7245   11.9056 H   0  0  0  0  0  0
   44.4222    2.6474   13.5228 H   0  0  0  0  0  0
   45.4907    4.7523   12.3164 H   0  0  0  0  0  0
   43.8086    4.5109   11.8190 H   0  0  0  0  0  0
   40.3465    0.8297    8.0745 H   0  0  0  0  0  0
  1  2  1  0  0  0
  2 21  1  0  0  0
  2  3  2  0  0  0
  3  4  1  0  0  0
  3 22  1  0  0  0
  4 15  1  0  0  0
  4  5  2  0  0  0
  5  6  1  0  0  0
  5 19  1  0  0  0
  6  7  1  0  0  0
  6 23  1  0  0  0
  7  8  1  0  0  0
  7 14  1  0  0  0
  7 24  1  0  0  0
  8 13  1  0  0  0
  8  9  2  0  0  0
  9 10  1  0  0  0
  9 25  1  0  0  0
 10 11  2  0  0  0
 10 26  1  0  0  0
 11 12  1  0  0  0
 11 27  1  0  0  0
 12 13  2  0  0  0
 13 28  1  0  0  0
 14 18  1  0  0  0
 14 15  1  0  0  0
 14 29  1  0  0  0
 15 16  1  0  0  0
 15 30  1  0  0  0
 16 17  2  0  0  0
 16 31  1  0  0  0
 17 18  1  0  0  0
 17 32  1  0  0  0
 18 33  1  0  0  0
 18 34  1  0  0  0
 19 20  1  0  0  0
 19 21  2  0  0  0
 21 35  1  0  0  0
M  END
> <Source File Index>
1

> <Source File Index>
7

> <Tot Q>
0

> <entry id>
33

> <flags>
0

> <subgroup collapsed>
0

> <Ionization Penalty>
0.0486

> <State Penalty>
0.0485

> <docking score>
-8.30138

> <glide emodel>
-35.1102

> <glide gscore>
-8.34988

> <Source File>
A2.sdf

> <Source Path>
C:\Users\yujie\Desktop\1b1

> <entry id>
46

> <Source File>
glide-dock_SP_1and2to_7RAD_2_pv.maegz

> <Source Path>
C:\Users\yujie\Desktop\1b1\glide-dock_SP_1and2to_7RAD_2

> <job name>
ligprep_1and2

> <subgroup title>
glide-dock_SP_1and2to_7RAD_2_pv

> <subgroupid>
glide-dock_SP_1and2to_7RAD_2_pv

$$$$
