p38_p38a_3flq
                    3D
 Schrodinger Suite 2024-1.
 47 49  0  0  1  0            999 V2000
   26.8984    8.7012   29.4087 C   0  0  0  0  0  0
   26.5396    8.5481   30.8933 C   0  0  2  0  0  0
   27.6519    7.8253   31.6728 C   0  0  0  0  0  0
   27.3369    7.7925   33.5396 S   0  0  0  0  0  0
   26.9941    9.5849   33.9907 C   0  0  0  0  0  0
   28.5929    7.4113   34.1911 O   0  0  0  0  0  0
   26.1191    7.0246   33.8121 O   0  0  0  0  0  0
   25.2476    7.8877   31.0376 N   0  0  0  0  0  0
   24.0351    8.5885   31.0032 C   0  0  0  0  0  0
   22.9185    7.8247   30.8926 N   0  0  0  0  0  0
   21.7260    8.4728   30.8878 C   0  0  0  0  0  0
   21.6379    9.8595   31.0063 C   0  0  0  0  0  0
   20.3808   10.6065   31.1041 C   0  0  0  0  0  0
   20.3900   11.9439   31.3456 C   0  0  0  0  0  0
   19.2686   12.7081   31.4965 O   0  0  0  0  0  0
   18.0072   12.2227   31.2541 C   0  0  0  0  0  0
   17.3582   12.6250   30.0875 C   0  0  0  0  0  0
   16.0556   12.2031   29.8337 C   0  0  0  0  0  0
   15.3808   11.4093   30.7598 C   0  0  0  0  0  0
   14.1222   10.9928   30.5000 F   0  0  0  0  0  0
   16.0168   11.0248   31.9405 C   0  0  0  0  0  0
   17.3324   11.4231   32.1839 C   0  0  0  0  0  0
   17.9534   11.0245   33.3155 F   0  0  0  0  0  0
   21.6337   12.7124   31.4658 C   0  0  0  0  0  0
   21.6014   13.9290   31.6714 O   0  0  0  0  0  0
   22.7901   11.9859   31.3198 N   0  0  0  0  0  0
   24.0762   12.7106   31.3986 C   0  0  0  0  0  0
   22.8378   10.5754   31.1161 C   0  0  0  0  0  0
   24.0446    9.9450   31.0996 N   0  0  0  0  0  0
   27.8521    9.2145   29.2874 H   0  0  0  0  0  0
   26.9572    7.7341   28.9077 H   0  0  0  0  0  0
   26.1480    9.2939   28.8846 H   0  0  0  0  0  0
   26.4819    9.5642   31.2865 H   0  0  0  0  0  0
   28.6065    8.3330   31.5423 H   0  0  0  0  0  0
   27.7769    6.7932   31.3453 H   0  0  0  0  0  0
   26.9279    9.6623   35.0743 H   0  0  0  0  0  0
   26.0502    9.8864   33.5409 H   0  0  0  0  0  0
   27.8109   10.2023   33.6218 H   0  0  0  0  0  0
   25.2373    6.8737   31.0587 H   0  0  0  0  0  0
   20.8439    7.8555   30.8230 H   0  0  0  0  0  0
   19.4473   10.0717   31.0125 H   0  0  0  0  0  0
   17.8731   13.2519   29.3727 H   0  0  0  0  0  0
   15.5779   12.4826   28.9108 H   0  0  0  0  0  0
   15.4998   10.3994   32.6533 H   0  0  0  0  0  0
   23.9761   13.7936   31.4905 H   0  0  0  0  0  0
   24.6500   12.3629   32.2586 H   0  0  0  0  0  0
   24.6697   12.5199   30.5032 H   0  0  0  0  0  0
  1  2  1  0  0  0
  1 30  1  0  0  0
  1 31  1  0  0  0
  1 32  1  0  0  0
  2  3  1  0  0  0
  2  8  1  0  0  0
  2 33  1  0  0  0
  3  4  1  0  0  0
  3 34  1  0  0  0
  3 35  1  0  0  0
  4  5  1  0  0  0
  4  6  2  0  0  0
  4  7  2  0  0  0
  5 36  1  0  0  0
  5 37  1  0  0  0
  5 38  1  0  0  0
  8  9  1  0  0  0
  8 39  1  0  0  0
  9 29  1  0  0  0
  9 10  2  0  0  0
 10 11  1  0  0  0
 11 12  2  0  0  0
 11 40  1  0  0  0
 12 28  1  0  0  0
 12 13  1  0  0  0
 13 14  2  0  0  0
 13 41  1  0  0  0
 14 15  1  0  0  0
 14 24  1  0  0  0
 15 16  1  0  0  0
 16 22  1  0  0  0
 16 17  2  0  0  0
 17 18  1  0  0  0
 17 42  1  0  0  0
 18 19  2  0  0  0
 18 43  1  0  0  0
 19 20  1  0  0  0
 19 21  1  0  0  0
 21 22  2  0  0  0
 21 44  1  0  0  0
 22 23  1  0  0  0
 24 25  2  0  0  0
 24 26  1  0  0  0
 26 27  1  0  0  0
 26 28  1  0  0  0
 27 45  1  0  0  0
 27 46  1  0  0  0
 27 47  1  0  0  0
 28 29  2  0  0  0
M  END
> <Tot Q>
0

> <Source File Index>
135

> <i_f3d_flags>
0

> <subgroup collapsed>
0

> <Ionization Penalty>
0

> <State Penalty>
0

> <docking score>
-10.2292

> <glide emodel>
-82.7328

> <glide gscore>
-10.2292

> <tautomer probability>
1

> <Source File>
p38p38_dock_SP_confgen_100_lib.maegz

> <Source Path>
C:\Users\yujie\Desktop\FEPs\p38

> <entry id>
206

> <subgroup title>
p38p38_dock_SP_confgen_100_lib

> <subgroupid>
p38p38_dock_SP_confgen_100_lib

$$$$
