p38_p38a_2s
                    3D
 Schrodinger Suite 2020-3.
 54 57  0  0  1  0            999 V2000
   21.2990   13.8878   31.7053 O   0  0  0  0  0  0
   21.3736   12.6759   31.4905 C   0  0  0  0  0  0
   20.1635   11.8775   31.2857 C   0  0  0  0  0  0
   19.0140   12.6173   31.3591 O   0  0  0  0  0  0
   17.7624   12.0654   31.2202 C   0  0  0  0  0  0
   17.0158   12.3884   30.0875 C   0  0  0  0  0  0
   15.7193   11.9002   29.9347 C   0  0  0  0  0  0
   15.1506   11.1143   30.9344 C   0  0  0  0  0  0
   13.9030   10.6247   30.7762 F   0  0  0  0  0  0
   15.8715   10.8265   32.0897 C   0  0  0  0  0  0
   17.1794   11.2917   32.2309 C   0  0  0  0  0  0
   17.8803   10.9946   33.3455 F   0  0  0  0  0  0
   20.2111   10.5401   31.0481 C   0  0  0  0  0  0
   21.4966    9.8284   31.0196 C   0  0  0  0  0  0
   21.6347    8.4478   30.8609 C   0  0  0  0  0  0
   22.8473    7.8293   30.8886 N   0  0  0  0  0  0
   23.9345    8.6279   31.0642 C   0  0  0  0  0  0
   25.1747    7.9670   31.0949 N   0  0  0  0  0  0
   26.4817    8.6148   31.2726 C   0  0  0  0  0  0
   26.8117    9.5762   30.1001 C   0  0  0  0  0  0
   27.9940   10.5047   30.4356 C   0  0  0  0  0  0
   27.7803   11.1174   31.7033 O   0  0  0  0  0  0
   27.8113   10.1888   32.7841 C   0  0  0  0  0  0
   26.5983    9.2505   32.6812 C   0  0  0  0  0  0
   23.8851    9.9798   31.2184 N   0  0  0  0  0  0
   22.6637   10.5789   31.2103 C   0  0  0  0  0  0
   22.5610   11.9858   31.4392 N   0  0  0  0  0  0
   23.8093   12.7675   31.6716 C   0  0  0  0  0  0
   24.5356   13.2331   30.3805 C   0  0  2  0  0  0
   25.9171   13.3157   30.6879 O   0  0  0  0  0  0
   24.0963   14.6297   29.8561 C   0  0  0  0  0  0
   22.7952   14.6249   29.2882 O   0  0  0  0  0  0
   17.4485   13.0089   29.3172 H   0  0  0  0  0  0
   15.1535   12.1292   29.0454 H   0  0  0  0  0  0
   15.4245   10.2240   32.8689 H   0  0  0  0  0  0
   19.3036    9.9789   30.8887 H   0  0  0  0  0  0
   20.7650    7.8244   30.7172 H   0  0  0  0  0  0
   25.1709    6.9544   31.0581 H   0  0  0  0  0  0
   27.2022    7.7942   31.2379 H   0  0  0  0  0  0
   27.0507    8.9956   29.2059 H   0  0  0  0  0  0
   25.9622   10.1970   29.8203 H   0  0  0  0  0  0
   28.9389    9.9580   30.4206 H   0  0  0  0  0  0
   28.0823   11.2934   29.6897 H   0  0  0  0  0  0
   28.7461    9.6247   32.7844 H   0  0  0  0  0  0
   27.7838   10.7400   33.7253 H   0  0  0  0  0  0
   25.7122    9.8181   32.9528 H   0  0  0  0  0  0
   26.6822    8.4660   33.4339 H   0  0  0  0  0  0
   23.6217   13.6350   32.3096 H   0  0  0  0  0  0
   24.4859   12.1441   32.2601 H   0  0  0  0  0  0
   24.4090   12.4890   29.5938 H   0  0  0  0  0  0
   26.2468   12.4534   30.9646 H   0  0  0  0  0  0
   24.1471   15.3752   30.6533 H   0  0  0  0  0  0
   24.7911   14.9720   29.0836 H   0  0  0  0  0  0
   22.5890   15.4946   28.9012 H   0  0  0  0  0  0
  1  2  2  0  0  0
  2 27  1  0  0  0
  2  3  1  0  0  0
  3  4  1  0  0  0
  3 13  2  0  0  0
  4  5  1  0  0  0
  5 11  1  0  0  0
  5  6  2  0  0  0
  6  7  1  0  0  0
  6 33  1  0  0  0
  7  8  2  0  0  0
  7 34  1  0  0  0
  8  9  1  0  0  0
  8 10  1  0  0  0
 10 11  2  0  0  0
 10 35  1  0  0  0
 11 12  1  0  0  0
 13 14  1  0  0  0
 13 36  1  0  0  0
 14 26  2  0  0  0
 14 15  1  0  0  0
 15 16  2  0  0  0
 15 37  1  0  0  0
 16 17  1  0  0  0
 17 18  1  0  0  0
 17 25  2  0  0  0
 18 19  1  0  0  0
 18 38  1  0  0  0
 19 24  1  0  0  0
 19 20  1  0  0  0
 19 39  1  0  0  0
 20 21  1  0  0  0
 20 40  1  0  0  0
 20 41  1  0  0  0
 21 22  1  0  0  0
 21 42  1  0  0  0
 21 43  1  0  0  0
 22 23  1  0  0  0
 23 24  1  0  0  0
 23 44  1  0  0  0
 23 45  1  0  0  0
 24 46  1  0  0  0
 24 47  1  0  0  0
 25 26  1  0  0  0
 26 27  1  0  0  0
 27 28  1  0  0  0
 28 29  1  0  0  0
 28 48  1  0  0  0
 28 49  1  0  0  0
 29 30  1  0  0  0
 29 31  1  0  0  0
 29 50  1  0  0  0
 30 51  1  0  0  0
 31 32  1  0  0  0
 31 52  1  0  0  0
 31 53  1  0  0  0
 32 54  1  0  0  0
M  END
> <s_m_source_file>
/home/user-home/yujie/0_PBCNetv2/data/FEP/p38/inp_ligprep.csv

> <i_m_source_file_index>
27

> <i_lp_mmshare_version>
51139

> <i_f3d_flags>
0

> <s_epik_input>
RmMxW2NIXWMoRilbY0hdW2NIXWMxT2MoW2NIXTIpYyg9TyluKFtDSDJdW0NASF0oW09IXSlbQ0gyXVtPSF0pYyhjMjMpbmMobltjSF0zKVtOSF1bQ0hdNFtDSDJdW0NIMl1PW0NIMl1bQ0gyXTQ=

> <s_epik_cmdline>
J2VwaWtfcHl0aG9uJywgJy1waHQnLCAnMi4wJywgJy1waCcsICc3LjQnLCAnLXRuJywgJzgnLCAnLW1hJywgJzIwMCcsICctaW1hZScsICc8aW5maWxlLm1hZT4nLCAnLW9tYWUnLCAnPG91dGZpbGUubWFlPic=

> <r_lp_tautomer_probability>
1

> <r_epik_Ionization_Penalty>
  0.0000

> <r_epik_Ionization_Penalty_Charging>
  0.0000

> <r_epik_Ionization_Penalty_Neutral>
  0.0000

> <r_epik_State_Penalty>
 -0.0000

> <r_epik_Charging_Adjusted_Penalty>
1.30056e-06

> <i_epik_Tot_Q>
0

> <i_epik_Tot_abs_Q>
0

> <s_epik_Chemistry_Notes>
This compound has an imine and may undergo hydrolysis.

> <s_lp_Force_Field>
OPLS3e

> <r_lp_Energy>
50.1483

> <b_lp_Chiralities_Consistent>
1

> <s_lp_Variant>
p38_p38a_2s-1

> <s_i_glide_gridfile>
p38-001-gridgen

> <i_i_glide_lignum>
28

> <i_i_glide_rotatable_bonds>
9

> <r_i_docking_score>
-10.3476138197208

> <r_i_glide_ligand_efficiency>
-0.323362931866275

> <r_i_glide_ligand_efficiency_sa>
-1.0266133152381

> <r_i_glide_ligand_efficiency_ln>
-2.31711279953513

> <r_i_glide_gscore>
-10.3476138197208

> <r_i_glide_lipo>
-3.33679734132415

> <r_i_glide_hbond>
-0.96

> <r_i_glide_metal>
-0

> <r_i_glide_rewards>
-2.54278131716424

> <r_i_glide_evdw>
-45.1997718811035

> <r_i_glide_ecoul>
-12.9694719314575

> <r_i_glide_erotb>
0.697374222541387

> <r_i_glide_esite>
0

> <r_i_glide_emodel>
-89.1605335499639

> <r_i_glide_energy>
-58.169243812561

> <r_i_glide_einternal>
9.53219127655029

> <i_i_glide_confnum>
275

> <i_i_glide_posenum>
316

> <r_i_glide_eff_state_penalty>
-0

$$$$
