p38_p38a_2n
                    3D
 Schrodinger Suite 2020-3.
 53 56  0  0  1  0            999 V2000
   21.5079   13.8379   31.8527 O   0  0  0  0  0  0
   21.5760   12.6434   31.5795 C   0  0  0  0  0  0
   20.3526   11.8667   31.3688 C   0  0  0  0  0  0
   19.2151   12.6175   31.4793 O   0  0  0  0  0  0
   17.9606   12.0976   31.2769 C   0  0  0  0  0  0
   17.2910   12.4015   30.0891 C   0  0  0  0  0  0
   15.9919   11.9383   29.8795 C   0  0  0  0  0  0
   15.3412   11.2236   30.8841 C   0  0  0  0  0  0
   14.0961   10.7596   30.6714 F   0  0  0  0  0  0
   15.9910   10.9528   32.0878 C   0  0  0  0  0  0
   17.3112   11.3592   32.2720 C   0  0  0  0  0  0
   17.9625   11.0236   33.4064 F   0  0  0  0  0  0
   20.3819   10.5410   31.0767 C   0  0  0  0  0  0
   21.6611    9.8262   31.0112 C   0  0  0  0  0  0
   21.7894    8.4464   30.8546 C   0  0  0  0  0  0
   22.9975    7.8253   30.8827 N   0  0  0  0  0  0
   24.0912    8.6110   31.0536 C   0  0  0  0  0  0
   25.3349    7.9588   31.0831 N   0  0  0  0  0  0
   26.5548    8.6763   31.4611 C   0  0  0  0  0  0
   27.6775    7.6686   31.7517 C   0  0  0  0  0  0
   28.9808    8.4267   32.0882 C   0  0  0  0  0  0
   29.3162    9.3465   31.0449 O   0  0  0  0  0  0
   28.3214   10.3271   30.7635 C   0  0  0  0  0  0
   27.0213    9.6279   30.3349 C   0  0  0  0  0  0
   24.0500    9.9569   31.2165 N   0  0  0  0  0  0
   22.8387   10.5658   31.1898 C   0  0  0  0  0  0
   22.7613   11.9699   31.4247 N   0  0  0  0  0  0
   24.0232   12.7578   31.5629 C   0  0  0  0  0  0
   24.2483   13.8293   30.4643 C   0  0  0  0  0  0
   25.7153   14.2434   30.2579 C   0  0  0  0  0  0
   26.4552   13.1823   29.6880 O   0  0  0  0  0  0
   17.7864   12.9867   29.3278 H   0  0  0  0  0  0
   15.4890   12.1274   28.9402 H   0  0  0  0  0  0
   15.4931   10.3890   32.8621 H   0  0  0  0  0  0
   19.4640    9.9993   30.9063 H   0  0  0  0  0  0
   20.9195    7.8240   30.7307 H   0  0  0  0  0  0
   25.3262    6.9521   31.2033 H   0  0  0  0  0  0
   26.3482    9.2284   32.3808 H   0  0  0  0  0  0
   27.4046    7.0188   32.5853 H   0  0  0  0  0  0
   27.8385    7.0145   30.8933 H   0  0  0  0  0  0
   28.8886    8.9592   33.0364 H   0  0  0  0  0  0
   29.8032    7.7187   32.2052 H   0  0  0  0  0  0
   28.1586   10.9667   31.6318 H   0  0  0  0  0  0
   28.6712   10.9759   29.9628 H   0  0  0  0  0  0
   27.1898    9.0740   29.4100 H   0  0  0  0  0  0
   26.2788   10.3892   30.1017 H   0  0  0  0  0  0
   24.0684   13.2248   32.5493 H   0  0  0  0  0  0
   24.8920   12.1019   31.5436 H   0  0  0  0  0  0
   23.8423   13.4943   29.5137 H   0  0  0  0  0  0
   23.6778   14.7229   30.7223 H   0  0  0  0  0  0
   25.7932   15.1393   29.6398 H   0  0  0  0  0  0
   26.1713   14.4797   31.2204 H   0  0  0  0  0  0
   26.6006   13.3749   28.7505 H   0  0  0  0  0  0
  1  2  2  0  0  0
  2 27  1  0  0  0
  2  3  1  0  0  0
  3  4  1  0  0  0
  3 13  2  0  0  0
  4  5  1  0  0  0
  5 11  1  0  0  0
  5  6  2  0  0  0
  6  7  1  0  0  0
  6 32  1  0  0  0
  7  8  2  0  0  0
  7 33  1  0  0  0
  8  9  1  0  0  0
  8 10  1  0  0  0
 10 11  2  0  0  0
 10 34  1  0  0  0
 11 12  1  0  0  0
 13 14  1  0  0  0
 13 35  1  0  0  0
 14 26  2  0  0  0
 14 15  1  0  0  0
 15 16  2  0  0  0
 15 36  1  0  0  0
 16 17  1  0  0  0
 17 18  1  0  0  0
 17 25  2  0  0  0
 18 19  1  0  0  0
 18 37  1  0  0  0
 19 24  1  0  0  0
 19 20  1  0  0  0
 19 38  1  0  0  0
 20 21  1  0  0  0
 20 39  1  0  0  0
 20 40  1  0  0  0
 21 22  1  0  0  0
 21 41  1  0  0  0
 21 42  1  0  0  0
 22 23  1  0  0  0
 23 24  1  0  0  0
 23 43  1  0  0  0
 23 44  1  0  0  0
 24 45  1  0  0  0
 24 46  1  0  0  0
 25 26  1  0  0  0
 26 27  1  0  0  0
 27 28  1  0  0  0
 28 29  1  0  0  0
 28 47  1  0  0  0
 28 48  1  0  0  0
 29 30  1  0  0  0
 29 49  1  0  0  0
 29 50  1  0  0  0
 30 31  1  0  0  0
 30 51  1  0  0  0
 30 52  1  0  0  0
 31 53  1  0  0  0
M  END
> <s_m_source_file>
/home/user-home/yujie/0_PBCNetv2/data/FEP/p38/inp_ligprep.csv

> <i_m_source_file_index>
29

> <i_lp_mmshare_version>
51139

> <i_f3d_flags>
0

> <s_epik_input>
RmMxW2NIXWMoRilbY0hdW2NIXWMxT2MoW2NIXTIpYyg9TyluKFtDSDJdW0NIMl1bQ0gyXVtPSF0pYyhjMjMpbmMobltjSF0zKVtOSF1bQ0hdNFtDSDJdW0NIMl1PW0NIMl1bQ0gyXTQ=

> <s_epik_cmdline>
J2VwaWtfcHl0aG9uJywgJy1waHQnLCAnMi4wJywgJy1waCcsICc3LjQnLCAnLXRuJywgJzgnLCAnLW1hJywgJzIwMCcsICctaW1hZScsICc8aW5maWxlLm1hZT4nLCAnLW9tYWUnLCAnPG91dGZpbGUubWFlPic=

> <r_lp_tautomer_probability>
1

> <r_epik_Ionization_Penalty>
  0.0000

> <r_epik_Ionization_Penalty_Charging>
  0.0000

> <r_epik_Ionization_Penalty_Neutral>
  0.0000

> <r_epik_State_Penalty>
 -0.0000

> <r_epik_Charging_Adjusted_Penalty>
1.61619e-06

> <i_epik_Tot_Q>
0

> <i_epik_Tot_abs_Q>
0

> <s_epik_Chemistry_Notes>
This compound has an imine and may undergo hydrolysis.

> <s_lp_Force_Field>
OPLS3e

> <r_lp_Energy>
54.8475

> <b_lp_Chiralities_Consistent>
1

> <s_lp_Variant>
p38_p38a_2n-1

> <s_i_glide_gridfile>
p38-001-gridgen

> <i_i_glide_lignum>
30

> <i_i_glide_rotatable_bonds>
8

> <r_i_docking_score>
-10.7908952792927

> <r_i_glide_ligand_efficiency>
-0.348093396106217

> <r_i_glide_ligand_efficiency_sa>
-1.0934938585016

> <r_i_glide_ligand_efficiency_ln>
-2.4336775867051

> <r_i_glide_gscore>
-10.7908952792927

> <r_i_glide_lipo>
-3.4730462387604

> <r_i_glide_hbond>
-1.27747395422279

> <r_i_glide_metal>
-0

> <r_i_glide_rewards>
-2.63450637974782

> <r_i_glide_evdw>
-45.546028137207

> <r_i_glide_ecoul>
-12.4898386001587

> <r_i_glide_erotb>
0.744908490322443

> <r_i_glide_esite>
0

> <r_i_glide_emodel>
-86.2932876248536

> <r_i_glide_energy>
-58.0358667373657

> <r_i_glide_einternal>
9.79702758789062

> <i_i_glide_confnum>
136

> <i_i_glide_posenum>
107

> <r_i_glide_eff_state_penalty>
-0

$$$$
