p38_p38a_2ee
                    3D
 Schrodinger Suite 2024-1.
 52 55  0  0  1  0            999 V2000
   29.0351    8.8216   35.5834 C   0  0  0  0  0  0
   29.1443    8.1732   34.2006 C   0  0  0  0  0  0
   30.2739    7.9267   33.7757 O   0  0  0  0  0  0
   28.0101    7.7553   33.5796 N   0  0  0  0  0  0
   26.6874    8.3052   33.9230 C   0  0  0  0  0  0
   26.4452    9.4835   32.9543 C   0  0  0  0  0  0
   26.4859    9.0302   31.4675 C   0  0  0  0  0  0
   25.3125    8.2109   31.1336 N   0  0  0  0  0  0
   24.0251    8.7611   31.0544 C   0  0  0  0  0  0
   22.9925    7.8913   30.8881 N   0  0  0  0  0  0
   21.7379    8.4216   30.8996 C   0  0  0  0  0  0
   21.5103    9.7866   31.0992 C   0  0  0  0  0  0
   20.1904   10.4113   31.2598 C   0  0  0  0  0  0
   20.0872   11.7333   31.5604 C   0  0  0  0  0  0
   18.9127   12.3871   31.7850 O   0  0  0  0  0  0
   17.6872   11.8365   31.5026 C   0  0  0  0  0  0
   17.0296   11.0257   32.4320 C   0  0  0  0  0  0
   15.7172   10.6249   32.1824 C   0  0  0  0  0  0
   15.0647   11.0250   31.0155 C   0  0  0  0  0  0
   13.8003   10.6246   30.7723 F   0  0  0  0  0  0
   15.7226   11.8242   30.0874 C   0  0  0  0  0  0
   17.0310   12.2304   30.3317 C   0  0  0  0  0  0
   17.6522   13.0367   29.4412 F   0  0  0  0  0  0
   21.2561   12.6131   31.6638 C   0  0  0  0  0  0
   21.1260   13.8249   31.8538 O   0  0  0  0  0  0
   22.4694   11.9990   31.4935 N   0  0  0  0  0  0
   23.6873   12.8348   31.5844 C   0  0  0  0  0  0
   22.6355   10.6101   31.2331 C   0  0  0  0  0  0
   23.8920   10.1048   31.1884 N   0  0  0  0  0  0
   27.7769    8.2256   31.1903 C   0  0  0  0  0  0
   28.0744    7.1275   32.2461 C   0  0  0  0  0  0
   28.5876    9.8137   35.5075 H   0  0  0  0  0  0
   30.0222    8.9316   36.0311 H   0  0  0  0  0  0
   28.4318    8.2097   36.2537 H   0  0  0  0  0  0
   25.9547    7.5141   33.7530 H   0  0  0  0  0  0
   26.5660    8.5384   34.9807 H   0  0  0  0  0  0
   25.4891    9.9434   33.2023 H   0  0  0  0  0  0
   27.1819   10.2705   33.1239 H   0  0  0  0  0  0
   26.4822    9.9067   30.8157 H   0  0  0  0  0  0
   25.4114    7.2047   31.1190 H   0  0  0  0  0  0
   20.9173    7.7269   30.7964 H   0  0  0  0  0  0
   19.3053    9.7985   31.1816 H   0  0  0  0  0  0
   17.5222   10.7328   33.3486 H   0  0  0  0  0  0
   15.2051    9.9896   32.8883 H   0  0  0  0  0  0
   15.2207   12.1325   29.1831 H   0  0  0  0  0  0
   23.4963   13.8897   31.7879 H   0  0  0  0  0  0
   24.3358   12.4672   32.3809 H   0  0  0  0  0  0
   24.2482   12.7807   30.6499 H   0  0  0  0  0  0
   28.6254    8.9091   31.1335 H   0  0  0  0  0  0
   27.7173    7.7628   30.2039 H   0  0  0  0  0  0
   29.0280    6.6244   32.0875 H   0  0  0  0  0  0
   27.3199    6.3406   32.2139 H   0  0  0  0  0  0
  1  2  1  0  0  0
  1 32  1  0  0  0
  1 33  1  0  0  0
  1 34  1  0  0  0
  2  3  2  0  0  0
  2  4  1  0  0  0
  4 31  1  0  0  0
  4  5  1  0  0  0
  5  6  1  0  0  0
  5 35  1  0  0  0
  5 36  1  0  0  0
  6  7  1  0  0  0
  6 37  1  0  0  0
  6 38  1  0  0  0
  7  8  1  0  0  0
  7 30  1  0  0  0
  7 39  1  0  0  0
  8  9  1  0  0  0
  8 40  1  0  0  0
  9 29  1  0  0  0
  9 10  2  0  0  0
 10 11  1  0  0  0
 11 12  2  0  0  0
 11 41  1  0  0  0
 12 28  1  0  0  0
 12 13  1  0  0  0
 13 14  2  0  0  0
 13 42  1  0  0  0
 14 15  1  0  0  0
 14 24  1  0  0  0
 15 16  1  0  0  0
 16 22  1  0  0  0
 16 17  2  0  0  0
 17 18  1  0  0  0
 17 43  1  0  0  0
 18 19  2  0  0  0
 18 44  1  0  0  0
 19 20  1  0  0  0
 19 21  1  0  0  0
 21 22  2  0  0  0
 21 45  1  0  0  0
 22 23  1  0  0  0
 24 25  2  0  0  0
 24 26  1  0  0  0
 26 27  1  0  0  0
 26 28  1  0  0  0
 27 46  1  0  0  0
 27 47  1  0  0  0
 27 48  1  0  0  0
 28 29  2  0  0  0
 30 31  1  0  0  0
 30 49  1  0  0  0
 30 50  1  0  0  0
 31 51  1  0  0  0
 31 52  1  0  0  0
M  END
> <Tot Q>
0

> <Source File Index>
449

> <i_f3d_flags>
0

> <subgroup collapsed>
0

> <Ionization Penalty>
0

> <State Penalty>
0

> <docking score>
-9.73402

> <glide emodel>
-77.997

> <glide gscore>
-9.73402

> <tautomer probability>
1

> <Source File>
p38p38_dock_SP_confgen_100_lib.maegz

> <Source Path>
C:\Users\yujie\Desktop\FEPs\p38

> <entry id>
520

> <subgroup title>
p38p38_dock_SP_confgen_100_lib

> <subgroupid>
p38p38_dock_SP_confgen_100_lib

$$$$
