p38_p38a_3flw
                    3D
 Schrodinger Suite 2020-3.
 49 51  0  0  1  0            999 V2000
   24.0132   12.6583   31.8320 C   0  0  0  0  0  0
   22.7438   11.9539   31.5549 N   0  0  0  0  0  0
   21.5888   12.7005   31.5162 C   0  0  0  0  0  0
   21.5471   13.9220   31.6875 O   0  0  0  0  0  0
   20.3596   11.9462   31.2598 C   0  0  0  0  0  0
   19.2277   12.7172   31.2881 O   0  0  0  0  0  0
   17.9623   12.1836   31.1969 C   0  0  0  0  0  0
   17.1737   12.4920   30.0881 C   0  0  0  0  0  0
   15.8802   11.9787   29.9858 C   0  0  0  0  0  0
   15.3503   11.1903   31.0077 C   0  0  0  0  0  0
   14.1195   10.6466   30.8861 F   0  0  0  0  0  0
   16.1143   10.9330   32.1437 C   0  0  0  0  0  0
   17.4192   11.4138   32.2328 C   0  0  0  0  0  0
   18.1651   11.1033   33.3133 F   0  0  0  0  0  0
   20.3657   10.6097   31.0199 C   0  0  0  0  0  0
   21.6223    9.8522   31.0441 C   0  0  0  0  0  0
   21.7211    8.4812   30.8153 C   0  0  0  0  0  0
   22.9066    7.8246   30.8899 N   0  0  0  0  0  0
   24.0028    8.5586   31.1999 C   0  0  0  0  0  0
   25.1973    7.8293   31.2973 N   0  0  0  0  0  0
   26.4899    8.4356   31.6123 C   0  0  0  0  0  0
   27.0719    9.1592   30.3661 C   0  0  0  0  0  0
   28.1052   10.2711   30.6332 C   0  0  0  0  0  0
   29.3327    9.7630   31.1058 O   0  0  0  0  0  0
   27.4563    7.3618   32.1751 C   0  0  0  0  0  0
   26.9582    6.6440   33.4465 C   0  0  0  0  0  0
   27.9023    5.6754   33.8485 O   0  0  0  0  0  0
   24.0062    9.9028   31.4200 N   0  0  0  0  0  0
   22.8056   10.5460   31.3355 C   0  0  0  0  0  0
   23.9080   13.7347   31.9769 H   0  0  0  0  0  0
   24.4729   12.2547   32.7353 H   0  0  0  0  0  0
   24.7135   12.5101   31.0084 H   0  0  0  0  0  0
   17.5777   13.1067   29.2978 H   0  0  0  0  0  0
   15.3001   12.1789   29.1020 H   0  0  0  0  0  0
   15.7138   10.3175   32.9342 H   0  0  0  0  0  0
   19.4436   10.0816   30.8278 H   0  0  0  0  0  0
   20.8524    7.8883   30.5796 H   0  0  0  0  0  0
   25.1733    6.8221   31.1892 H   0  0  0  0  0  0
   26.3253    9.1785   32.3988 H   0  0  0  0  0  0
   26.2570    9.6379   29.8201 H   0  0  0  0  0  0
   27.4826    8.4337   29.6629 H   0  0  0  0  0  0
   27.7238   10.9613   31.3869 H   0  0  0  0  0  0
   28.2749   10.8606   29.7338 H   0  0  0  0  0  0
   29.2536    9.5856   32.0450 H   0  0  0  0  0  0
   27.6609    6.6249   31.3973 H   0  0  0  0  0  0
   28.4206    7.8115   32.4063 H   0  0  0  0  0  0
   26.7881    7.3636   34.2482 H   0  0  0  0  0  0
   25.9903    6.1704   33.2879 H   0  0  0  0  0  0
   28.0252    5.0538   33.1245 H   0  0  0  0  0  0
  1  2  1  0  0  0
  1 30  1  0  0  0
  1 31  1  0  0  0
  1 32  1  0  0  0
  2 29  1  0  0  0
  2  3  1  0  0  0
  3  4  2  0  0  0
  3  5  1  0  0  0
  5  6  1  0  0  0
  5 15  2  0  0  0
  6  7  1  0  0  0
  7 13  1  0  0  0
  7  8  2  0  0  0
  8  9  1  0  0  0
  8 33  1  0  0  0
  9 10  2  0  0  0
  9 34  1  0  0  0
 10 11  1  0  0  0
 10 12  1  0  0  0
 12 13  2  0  0  0
 12 35  1  0  0  0
 13 14  1  0  0  0
 15 16  1  0  0  0
 15 36  1  0  0  0
 16 29  2  0  0  0
 16 17  1  0  0  0
 17 18  2  0  0  0
 17 37  1  0  0  0
 18 19  1  0  0  0
 19 20  1  0  0  0
 19 28  2  0  0  0
 20 21  1  0  0  0
 20 38  1  0  0  0
 21 22  1  0  0  0
 21 25  1  0  0  0
 21 39  1  0  0  0
 22 23  1  0  0  0
 22 40  1  0  0  0
 22 41  1  0  0  0
 23 24  1  0  0  0
 23 42  1  0  0  0
 23 43  1  0  0  0
 24 44  1  0  0  0
 25 26  1  0  0  0
 25 45  1  0  0  0
 25 46  1  0  0  0
 26 27  1  0  0  0
 26 47  1  0  0  0
 26 48  1  0  0  0
 27 49  1  0  0  0
 28 29  1  0  0  0
M  END
> <s_m_source_file>
/home/user-home/yujie/0_PBCNetv2/data/FEP/p38/inp_ligprep.csv

> <i_m_source_file_index>
4

> <i_lp_mmshare_version>
51139

> <i_f3d_flags>
0

> <s_epik_input>
W09IXVtDSDJdW0NIMl1bQ0hdKFtDSDJdW0NIMl1bT0hdKVtOSF1jKG5bY0hdMSluYyhjMTIpbihbQ0gzXSljKD1PKWMoW2NIXTIpT2MzW2NIXVtjSF1jKEYpW2NIXWMzRg==

> <s_epik_cmdline>
J2VwaWtfcHl0aG9uJywgJy1waHQnLCAnMi4wJywgJy1waCcsICc3LjQnLCAnLXRuJywgJzgnLCAnLW1hJywgJzIwMCcsICctaW1hZScsICc8aW5maWxlLm1hZT4nLCAnLW9tYWUnLCAnPG91dGZpbGUubWFlPic=

> <r_lp_tautomer_probability>
1

> <r_epik_Ionization_Penalty>
  0.0000

> <r_epik_Ionization_Penalty_Charging>
  0.0000

> <r_epik_Ionization_Penalty_Neutral>
  0.0000

> <r_epik_State_Penalty>
 -0.0000

> <r_epik_Charging_Adjusted_Penalty>
1.35498e-06

> <i_epik_Tot_Q>
0

> <i_epik_Tot_abs_Q>
0

> <s_epik_Chemistry_Notes>
This compound has an imine and may undergo hydrolysis.

> <s_lp_Force_Field>
OPLS3e

> <r_lp_Energy>
48.9316

> <b_lp_Chiralities_Consistent>
1

> <s_lp_Variant>
p38_p38a_3flw-1

> <s_i_glide_gridfile>
p38-001-gridgen

> <i_i_glide_lignum>
4

> <i_i_glide_rotatable_bonds>
10

> <r_i_docking_score>
-9.91289368298981

> <r_i_glide_ligand_efficiency>
-0.341823920103097

> <r_i_glide_ligand_efficiency_sa>
-1.05019137997587

> <r_i_glide_ligand_efficiency_ln>
-2.2698012841096

> <r_i_glide_gscore>
-9.91289368298981

> <r_i_glide_lipo>
-3.2474032436711

> <r_i_glide_hbond>
-0.867111498054461

> <r_i_glide_metal>
-0

> <r_i_glide_rewards>
-2.82263344402909

> <r_i_glide_evdw>
-45.6718826293945

> <r_i_glide_ecoul>
-10.8797731399536

> <r_i_glide_erotb>
0.952447031307137

> <r_i_glide_esite>
-0.0126324260795241

> <r_i_glide_emodel>
-88.1267803332926

> <r_i_glide_energy>
-56.5516557693481

> <r_i_glide_einternal>
4.40686702728271

> <i_i_glide_confnum>
180

> <i_i_glide_posenum>
239

> <r_i_glide_eff_state_penalty>
-0

$$$$
