p38_p38a_2l
                    3D
 Schrodinger Suite 2024-1.
 49 52  0  0  1  0            999 V2000
   24.5607   13.1610   30.3815 C   0  0  0  0  0  0
   23.9193   12.7407   31.7165 C   0  0  0  0  0  0
   22.6651   11.9683   31.5360 N   0  0  0  0  0  0
   21.4868   12.6756   31.5295 C   0  0  0  0  0  0
   21.4167   13.8977   31.6862 O   0  0  0  0  0  0
   20.2728   11.8809   31.3217 C   0  0  0  0  0  0
   19.1296   12.6277   31.3794 O   0  0  0  0  0  0
   17.8761   12.0810   31.2491 C   0  0  0  0  0  0
   17.3004   11.3589   32.2994 C   0  0  0  0  0  0
   15.9930   10.8863   32.1823 C   0  0  0  0  0  0
   15.2680   11.1117   31.0141 C   0  0  0  0  0  0
   14.0174   10.6233   30.8858 F   0  0  0  0  0  0
   15.8398   11.8295   29.9683 C   0  0  0  0  0  0
   17.1353   12.3274   30.0896 C   0  0  0  0  0  0
   17.6704   13.0450   29.0764 F   0  0  0  0  0  0
   20.3122   10.5420   31.0897 C   0  0  0  0  0  0
   21.5931    9.8223   31.0875 C   0  0  0  0  0  0
   21.7353    8.4492   30.8826 C   0  0  0  0  0  0
   22.9423    7.8258   30.9474 N   0  0  0  0  0  0
   24.0198    8.6037   31.2318 C   0  0  0  0  0  0
   25.2496    7.9384   31.3627 N   0  0  0  0  0  0
   26.4900    8.6654   31.6393 C   0  0  0  0  0  0
   27.5129    7.7214   32.2915 C   0  0  0  0  0  0
   28.8369    8.4787   32.5186 C   0  0  0  0  0  0
   29.3139    9.0252   31.2885 O   0  0  0  0  0  0
   28.4215    9.9326   30.6416 C   0  0  0  0  0  0
   27.0828    9.2309   30.3341 C   0  0  0  0  0  0
   23.9732    9.9513   31.4165 N   0  0  0  0  0  0
   22.7588   10.5582   31.3345 C   0  0  0  0  0  0
   25.4861   13.7095   30.5571 H   0  0  0  0  0  0
   24.8082   12.2986   29.7604 H   0  0  0  0  0  0
   23.9006   13.8161   29.8120 H   0  0  0  0  0  0
   23.7508   13.6276   32.3320 H   0  0  0  0  0  0
   24.6412   12.1542   32.2866 H   0  0  0  0  0  0
   17.8636   11.1701   33.2019 H   0  0  0  0  0  0
   15.5498   10.3147   32.9810 H   0  0  0  0  0  0
   15.2873   11.9925   29.0581 H   0  0  0  0  0  0
   19.3997    9.9892   30.9267 H   0  0  0  0  0  0
   20.8792    7.8280   30.6780 H   0  0  0  0  0  0
   25.3128    6.9497   31.1454 H   0  0  0  0  0  0
   26.2739    9.4941   32.3182 H   0  0  0  0  0  0
   27.1332    7.3438   33.2418 H   0  0  0  0  0  0
   27.6947    6.8483   31.6605 H   0  0  0  0  0  0
   28.7124    9.2729   33.2570 H   0  0  0  0  0  0
   29.5939    7.8001   32.9132 H   0  0  0  0  0  0
   28.2718   10.8211   31.2580 H   0  0  0  0  0  0
   28.8891   10.2707   29.7189 H   0  0  0  0  0  0
   27.2452    8.4343   29.6060 H   0  0  0  0  0  0
   26.3951    9.9416   29.8730 H   0  0  0  0  0  0
  1  2  1  0  0  0
  1 30  1  0  0  0
  1 31  1  0  0  0
  1 32  1  0  0  0
  2  3  1  0  0  0
  2 33  1  0  0  0
  2 34  1  0  0  0
  3 29  1  0  0  0
  3  4  1  0  0  0
  4  5  2  0  0  0
  4  6  1  0  0  0
  6  7  1  0  0  0
  6 16  2  0  0  0
  7  8  1  0  0  0
  8 14  1  0  0  0
  8  9  2  0  0  0
  9 10  1  0  0  0
  9 35  1  0  0  0
 10 11  2  0  0  0
 10 36  1  0  0  0
 11 12  1  0  0  0
 11 13  1  0  0  0
 13 14  2  0  0  0
 13 37  1  0  0  0
 14 15  1  0  0  0
 16 17  1  0  0  0
 16 38  1  0  0  0
 17 29  2  0  0  0
 17 18  1  0  0  0
 18 19  2  0  0  0
 18 39  1  0  0  0
 19 20  1  0  0  0
 20 21  1  0  0  0
 20 28  2  0  0  0
 21 22  1  0  0  0
 21 40  1  0  0  0
 22 27  1  0  0  0
 22 23  1  0  0  0
 22 41  1  0  0  0
 23 24  1  0  0  0
 23 42  1  0  0  0
 23 43  1  0  0  0
 24 25  1  0  0  0
 24 44  1  0  0  0
 24 45  1  0  0  0
 25 26  1  0  0  0
 26 27  1  0  0  0
 26 46  1  0  0  0
 26 47  1  0  0  0
 27 48  1  0  0  0
 27 49  1  0  0  0
 28 29  1  0  0  0
M  END
> <Tot Q>
0

> <Source File Index>
190

> <i_f3d_flags>
0

> <subgroup collapsed>
0

> <Ionization Penalty>
0

> <State Penalty>
0

> <docking score>
-10.1

> <glide emodel>
-80.0143

> <glide gscore>
-10.1

> <tautomer probability>
1

> <Source File>
p38p38_dock_SP_confgen_100_lib.maegz

> <Source Path>
C:\Users\yujie\Desktop\FEPs\p38

> <entry id>
261

> <subgroup title>
p38p38_dock_SP_confgen_100_lib

> <subgroupid>
p38p38_dock_SP_confgen_100_lib

$$$$
