p38_p38a_2k
                    3D
 Schrodinger Suite 2020-3.
 42 45  0  0  1  0            999 V2000
   21.4261   13.8253   31.6853 O   0  0  0  0  0  0
   21.5112   12.6107   31.4908 C   0  0  0  0  0  0
   22.6376   11.9049   31.5365 N   0  5  0  0  0  0
   22.6390   10.5446   31.2863 C   0  0  0  0  0  0
   23.8453    9.9259   31.3946 N   0  0  0  0  0  0
   23.8701    8.5773   31.1902 C   0  0  0  0  0  0
   25.0626    7.8418   31.3109 N   0  0  0  0  0  0
   26.3917    8.3832   31.5996 C   0  0  0  0  0  0
   26.9021    9.3276   30.4926 C   0  0  0  0  0  0
   28.2871    9.8830   30.8760 C   0  0  0  0  0  0
   28.2333   10.4806   32.1729 O   0  0  0  0  0  0
   27.8943    9.5771   33.2269 C   0  0  0  0  0  0
   26.4792    9.0118   33.0032 C   0  0  0  0  0  0
   22.7879    7.8244   30.8694 N   0  0  0  0  0  0
   21.5957    8.4597   30.7484 C   0  0  0  0  0  0
   21.4760    9.8290   30.9606 C   0  0  0  0  0  0
   20.2223   10.5891   30.9115 C   0  0  0  0  0  0
   20.2411   11.9218   31.1946 C   0  0  0  0  0  0
   19.1297   12.7197   31.2186 O   0  0  0  0  0  0
   17.8603   12.1972   31.1668 C   0  0  0  0  0  0
   17.0515   12.5155   30.0761 C   0  0  0  0  0  0
   15.7607   11.9954   29.9876 C   0  0  0  0  0  0
   15.2623   11.1903   31.0101 C   0  0  0  0  0  0
   14.0432   10.6254   30.8878 F   0  0  0  0  0  0
   16.0364   10.9369   32.1394 C   0  0  0  0  0  0
   17.3405   11.4240   32.2134 C   0  0  0  0  0  0
   18.1055   11.1245   33.2877 F   0  0  0  0  0  0
   25.0050    6.8387   31.1986 H   0  0  0  0  0  0
   27.0346    7.5007   31.6006 H   0  0  0  0  0  0
   26.2215   10.1662   30.3449 H   0  0  0  0  0  0
   26.9644    8.8030   29.5378 H   0  0  0  0  0  0
   28.6044   10.6347   30.1518 H   0  0  0  0  0  0
   29.0424    9.0958   30.8592 H   0  0  0  0  0  0
   27.9366   10.1133   34.1757 H   0  0  0  0  0  0
   28.6338    8.7770   33.2887 H   0  0  0  0  0  0
   26.2471    8.2675   33.7653 H   0  0  0  0  0  0
   25.7590    9.8204   33.1236 H   0  0  0  0  0  0
   20.7384    7.8494   30.5015 H   0  0  0  0  0  0
   19.3018   10.0745   30.6797 H   0  0  0  0  0  0
   17.4432   13.1348   29.2814 H   0  0  0  0  0  0
   15.1561   12.2029   29.1184 H   0  0  0  0  0  0
   15.6472   10.3174   32.9347 H   0  0  0  0  0  0
  1  2  2  0  0  0
  2 18  1  0  0  0
  2  3  1  0  0  0
  3  4  1  0  0  0
  4 16  2  0  0  0
  4  5  1  0  0  0
  5  6  2  0  0  0
  6  7  1  0  0  0
  6 14  1  0  0  0
  7  8  1  0  0  0
  7 28  1  0  0  0
  8 13  1  0  0  0
  8  9  1  0  0  0
  8 29  1  0  0  0
  9 10  1  0  0  0
  9 30  1  0  0  0
  9 31  1  0  0  0
 10 11  1  0  0  0
 10 32  1  0  0  0
 10 33  1  0  0  0
 11 12  1  0  0  0
 12 13  1  0  0  0
 12 34  1  0  0  0
 12 35  1  0  0  0
 13 36  1  0  0  0
 13 37  1  0  0  0
 14 15  2  0  0  0
 15 16  1  0  0  0
 15 38  1  0  0  0
 16 17  1  0  0  0
 17 18  2  0  0  0
 17 39  1  0  0  0
 18 19  1  0  0  0
 19 20  1  0  0  0
 20 26  1  0  0  0
 20 21  2  0  0  0
 21 22  1  0  0  0
 21 40  1  0  0  0
 22 23  2  0  0  0
 22 41  1  0  0  0
 23 24  1  0  0  0
 23 25  1  0  0  0
 25 26  2  0  0  0
 25 42  1  0  0  0
 26 27  1  0  0  0
M  CHG  1   3  -1
M  END
> <s_m_source_file>
/home/user-home/yujie/0_PBCNetv2/data/FEP/p38/inp_ligprep.csv

> <i_m_source_file_index>
15

> <i_lp_mmshare_version>
51139

> <i_f3d_flags>
0

> <s_epik_input>
RmMxW2NIXWMoRilbY0hdW2NIXWMxT2MoYyg9TylbbkhdMilbY0hdYyhjMjMpW2NIXW5jKG4zKVtOSF1bQ0hdNFtDSDJdW0NIMl1PW0NIMl1bQ0gyXTQ=

> <s_epik_cmdline>
J2VwaWtfcHl0aG9uJywgJy1waHQnLCAnMi4wJywgJy1waCcsICc3LjQnLCAnLXRuJywgJzgnLCAnLW1hJywgJzIwMCcsICctaW1hZScsICc8aW5maWxlLm1hZT4nLCAnLW9tYWUnLCAnPG91dGZpbGUubWFlPic=

> <r_lp_tautomer_probability>
1

> <r_epik_Ionization_Penalty>
  0.5922

> <r_epik_Ionization_Penalty_Charging>
  0.0001

> <r_epik_Ionization_Penalty_Neutral>
  0.5921

> <r_epik_State_Penalty>
  0.6058

> <r_epik_Charging_Adjusted_Penalty>
0.605897

> <i_epik_Tot_Q>
-1

> <i_epik_Tot_abs_Q>
1

> <s_lp_Force_Field>
OPLS3e

> <r_lp_Energy>
58.308

> <b_lp_Chiralities_Consistent>
1

> <s_lp_Variant>
p38_p38a_2k-2

> <s_i_glide_gridfile>
p38-001-gridgen

> <i_i_glide_lignum>
16

> <i_i_glide_rotatable_bonds>
4

> <r_i_docking_score>
-9.32052966666955

> <r_i_glide_ligand_efficiency>
-0.345204802469242

> <r_i_glide_ligand_efficiency_sa>
-1.03561440626999

> <r_i_glide_ligand_efficiency_ln>
-2.16966564545986

> <r_i_glide_gscore>
-9.92632566666955

> <r_i_glide_lipo>
-3.28349619972039

> <r_i_glide_hbond>
-0.864154983929545

> <r_i_glide_metal>
-0

> <r_i_glide_rewards>
-2.97079069317343

> <r_i_glide_evdw>
-43.4557456970215

> <r_i_glide_ecoul>
-7.86798715591431

> <r_i_glide_erotb>
0.55457700599333

> <r_i_glide_esite>
-0.00947543760128691

> <r_i_glide_emodel>
-77.193958225399

> <r_i_glide_energy>
-51.3237328529358

> <r_i_glide_einternal>
5.01799488067627

> <i_i_glide_confnum>
47

> <i_i_glide_posenum>
188

> <r_i_glide_eff_state_penalty>
0.605796

$$$$
