p38_p38a_2t
                    3D
 Schrodinger Suite 2024-1.
 47 50  0  0  1  0            999 V2000
   25.4619   12.9787   29.9450 N   0  0  0  0  0  0
   24.7646   12.8691   30.8627 C   0  0  0  0  0  0
   23.8782   12.7273   32.0251 C   0  0  0  0  0  0
   22.6311   12.0442   31.6579 N   0  0  0  0  0  0
   21.4722   12.7549   31.6010 C   0  0  0  0  0  0
   21.4128   13.9244   31.9756 O   0  0  0  0  0  0
   20.2726   12.0463   31.1391 C   0  0  0  0  0  0
   19.1262   12.7997   31.0345 O   0  0  0  0  0  0
   17.8863   12.2166   31.0925 C   0  0  0  0  0  0
   17.4659   11.4844   32.2254 C   0  0  0  0  0  0
   16.1574   10.9623   32.2763 C   0  0  0  0  0  0
   15.2903   11.1292   31.1791 C   0  0  0  0  0  0
   14.0675   10.5573   31.1888 F   0  0  0  0  0  0
   15.7036   11.8685   30.0592 C   0  0  0  0  0  0
   16.9903   12.4286   30.0255 C   0  0  0  0  0  0
   17.3700   13.1641   28.9588 F   0  0  0  0  0  0
   20.3252   10.7422   30.7890 C   0  0  0  0  0  0
   21.5699    9.9922   30.8925 C   0  0  0  0  0  0
   21.6948    8.6303   30.5789 C   0  0  0  0  0  0
   22.8561    7.9754   30.7361 N   0  0  0  0  0  0
   23.8848    8.6825   31.1653 C   0  0  0  0  0  0
   25.0637    7.9938   31.3336 N   0  0  0  0  0  0
   26.3387    8.6151   31.6922 C   0  0  0  0  0  0
   27.3230    7.5954   32.2802 C   0  0  0  0  0  0
   28.6521    8.2774   32.6344 C   0  0  0  0  0  0
   29.1952    8.8907   31.4735 O   0  0  0  0  0  0
   28.3657    9.9154   30.9304 C   0  0  0  0  0  0
   27.0143    9.3166   30.5000 C   0  0  0  0  0  0
   23.8711    9.9706   31.4815 N   0  0  0  0  0  0
   22.7246   10.6573   31.3323 C   0  0  0  0  0  0
   23.7434   13.7234   32.4485 H   0  0  0  0  0  0
   24.4144   12.1574   32.7840 H   0  0  0  0  0  0
   18.1389   11.3324   33.0560 H   0  0  0  0  0  0
   15.8262   10.3975   33.1355 H   0  0  0  0  0  0
   15.0391   12.0109   29.2216 H   0  0  0  0  0  0
   19.4607   10.2194   30.4117 H   0  0  0  0  0  0
   20.8485    8.0623   30.2271 H   0  0  0  0  0  0
   25.0448    6.9943   31.1481 H   0  0  0  0  0  0
   26.1417    9.3635   32.4611 H   0  0  0  0  0  0
   26.9005    7.1139   33.1619 H   0  0  0  0  0  0
   27.5266    6.8090   31.5552 H   0  0  0  0  0  0
   28.5179    9.0189   33.4232 H   0  0  0  0  0  0
   29.3642    7.5392   33.0040 H   0  0  0  0  0  0
   28.2250   10.7124   31.6619 H   0  0  0  0  0  0
   28.8701   10.3629   30.0755 H   0  0  0  0  0  0
   27.1782    8.6098   29.6860 H   0  0  0  0  0  0
   26.3787   10.1088   30.1024 H   0  0  0  0  0  0
  1  2  3  0  0  0
  2  3  1  0  0  0
  3  4  1  0  0  0
  3 31  1  0  0  0
  3 32  1  0  0  0
  4 30  1  0  0  0
  4  5  1  0  0  0
  5  6  2  0  0  0
  5  7  1  0  0  0
  7  8  1  0  0  0
  7 17  2  0  0  0
  8  9  1  0  0  0
  9 15  1  0  0  0
  9 10  2  0  0  0
 10 11  1  0  0  0
 10 33  1  0  0  0
 11 12  2  0  0  0
 11 34  1  0  0  0
 12 13  1  0  0  0
 12 14  1  0  0  0
 14 15  2  0  0  0
 14 35  1  0  0  0
 15 16  1  0  0  0
 17 18  1  0  0  0
 17 36  1  0  0  0
 18 30  2  0  0  0
 18 19  1  0  0  0
 19 20  2  0  0  0
 19 37  1  0  0  0
 20 21  1  0  0  0
 21 22  1  0  0  0
 21 29  2  0  0  0
 22 23  1  0  0  0
 22 38  1  0  0  0
 23 28  1  0  0  0
 23 24  1  0  0  0
 23 39  1  0  0  0
 24 25  1  0  0  0
 24 40  1  0  0  0
 24 41  1  0  0  0
 25 26  1  0  0  0
 25 42  1  0  0  0
 25 43  1  0  0  0
 26 27  1  0  0  0
 27 28  1  0  0  0
 27 44  1  0  0  0
 27 45  1  0  0  0
 28 46  1  0  0  0
 28 47  1  0  0  0
 29 30  1  0  0  0
M  END
> <Source File Index>
1

> <Ionization Penalty>
0

> <Source File Index>
446

> <State Penalty>
0

> <Tot Q>
0

> <entry id>
517

> <i_f3d_flags>
0

> <subgroup collapsed>
0

> <tautomer probability>
1

> <docking score>
-9.7393

> <glide emodel>
-85.012

> <glide gscore>
-9.7393

> <Source File>
p38_p38a_2t_0.63.sdf

> <Source Path>
C:\Users\yujie\Desktop\FEPs\p38

> <entry id>
2616

> <Source File>
p38p38_dock_SP_confgen_100_lib.maegz

> <Source Path>
C:\Users\yujie\Desktop\FEPs\p38

> <subgroup title>
p38p38_dock_SP_confgen_100_lib

> <subgroupid>
p38p38_dock_SP_confgen_100_lib

$$$$
