p38_p38a_2m
                    3D
 Schrodinger Suite 2020-3.
 50 54  0  0  1  0            999 V2000
   21.3212   14.0467   31.6863 O   0  0  0  0  0  0
   21.4122   12.8486   31.4027 C   0  0  0  0  0  0
   20.2058   12.0491   31.1934 C   0  0  0  0  0  0
   19.0591   12.7869   31.2879 O   0  0  0  0  0  0
   17.8145   12.2241   31.1901 C   0  0  0  0  0  0
   17.0264   12.5235   30.0800 C   0  0  0  0  0  0
   15.7495   11.9763   29.9678 C   0  0  0  0  0  0
   15.2409   11.1711   30.9833 C   0  0  0  0  0  0
   14.0127   10.6249   30.8588 F   0  0  0  0  0  0
   16.0071   10.9090   32.1121 C   0  0  0  0  0  0
   17.3006   11.4193   32.2135 C   0  0  0  0  0  0
   18.0602   11.1104   33.2884 F   0  0  0  0  0  0
   20.2483   10.7188   30.9258 C   0  0  0  0  0  0
   21.5348   10.0109   30.8833 C   0  0  0  0  0  0
   21.6721    8.6271   30.7658 C   0  0  0  0  0  0
   22.8834    8.0114   30.8419 N   0  0  0  0  0  0
   23.9666    8.8081   31.0399 C   0  0  0  0  0  0
   25.1959    8.1420   31.1579 N   0  0  0  0  0  0
   26.4170    8.8128   31.6024 C   0  0  0  0  0  0
   27.4221    7.7338   32.0454 C   0  0  0  0  0  0
   28.7791    8.3716   32.3988 C   0  0  0  0  0  0
   29.2622    9.1280   31.2900 O   0  0  0  0  0  0
   28.4096   10.2039   30.8992 C   0  0  0  0  0  0
   27.0424    9.6405   30.4567 C   0  0  0  0  0  0
   23.9229   10.1623   31.1616 N   0  0  0  0  0  0
   22.7048   10.7635   31.0689 C   0  0  0  0  0  0
   22.6018   12.1770   31.2571 N   0  0  0  0  0  0
   23.8448   12.9727   31.4305 C   0  0  0  0  0  0
   24.9457   12.9372   30.3832 C   0  0  0  0  0  0
   24.1086   14.1765   30.5371 C   0  0  0  0  0  0
   17.4197   13.1557   29.2963 H   0  0  0  0  0  0
   15.1623   12.1651   29.0898 H   0  0  0  0  0  0
   15.6159   10.2710   32.8903 H   0  0  0  0  0  0
   19.3264   10.1707   30.7669 H   0  0  0  0  0  0
   20.8069    7.9911   30.6455 H   0  0  0  0  0  0
   25.1636    7.1390   31.2630 H   0  0  0  0  0  0
   26.1791    9.4397   32.4656 H   0  0  0  0  0  0
   27.0390    7.1859   32.9073 H   0  0  0  0  0  0
   27.5734    6.9981   31.2539 H   0  0  0  0  0  0
   28.6994    9.0055   33.2844 H   0  0  0  0  0  0
   29.5083    7.5974   32.6371 H   0  0  0  0  0  0
   28.2962   10.9176   31.7175 H   0  0  0  0  0  0
   28.8881   10.7467   30.0859 H   0  0  0  0  0  0
   27.1730    9.0277   29.5639 H   0  0  0  0  0  0
   26.3905   10.4627   30.1689 H   0  0  0  0  0  0
   24.1451   13.0575   32.4763 H   0  0  0  0  0  0
   25.9831   12.9516   30.7217 H   0  0  0  0  0  0
   24.8183   12.3243   29.4904 H   0  0  0  0  0  0
   23.3937   14.4302   29.7517 H   0  0  0  0  0  0
   24.5469   15.0653   30.9939 H   0  0  0  0  0  0
  1  2  2  0  0  0
  2 27  1  0  0  0
  2  3  1  0  0  0
  3  4  1  0  0  0
  3 13  2  0  0  0
  4  5  1  0  0  0
  5 11  1  0  0  0
  5  6  2  0  0  0
  6  7  1  0  0  0
  6 31  1  0  0  0
  7  8  2  0  0  0
  7 32  1  0  0  0
  8  9  1  0  0  0
  8 10  1  0  0  0
 10 11  2  0  0  0
 10 33  1  0  0  0
 11 12  1  0  0  0
 13 14  1  0  0  0
 13 34  1  0  0  0
 14 26  2  0  0  0
 14 15  1  0  0  0
 15 16  2  0  0  0
 15 35  1  0  0  0
 16 17  1  0  0  0
 17 18  1  0  0  0
 17 25  2  0  0  0
 18 19  1  0  0  0
 18 36  1  0  0  0
 19 24  1  0  0  0
 19 20  1  0  0  0
 19 37  1  0  0  0
 20 21  1  0  0  0
 20 38  1  0  0  0
 20 39  1  0  0  0
 21 22  1  0  0  0
 21 40  1  0  0  0
 21 41  1  0  0  0
 22 23  1  0  0  0
 23 24  1  0  0  0
 23 42  1  0  0  0
 23 43  1  0  0  0
 24 44  1  0  0  0
 24 45  1  0  0  0
 25 26  1  0  0  0
 26 27  1  0  0  0
 27 28  1  0  0  0
 28 30  1  0  0  0
 28 29  1  0  0  0
 28 46  1  0  0  0
 29 30  1  0  0  0
 29 47  1  0  0  0
 29 48  1  0  0  0
 30 49  1  0  0  0
 30 50  1  0  0  0
M  END
> <s_m_source_file>
/home/user-home/yujie/0_PBCNetv2/data/FEP/p38/inp_ligprep.csv

> <i_m_source_file_index>
18

> <i_lp_mmshare_version>
51139

> <i_f3d_flags>
0

> <s_epik_input>
RmMxW2NIXWMoRilbY0hdW2NIXWMxT2MoW2NIXTIpYyg9TyluKFtDSF0zW0NIMl1bQ0gyXTMpYyhjMjQpbmMobltjSF00KVtOSF1bQ0hdNVtDSDJdW0NIMl1PW0NIMl1bQ0gyXTU=

> <s_epik_cmdline>
J2VwaWtfcHl0aG9uJywgJy1waHQnLCAnMi4wJywgJy1waCcsICc3LjQnLCAnLXRuJywgJzgnLCAnLW1hJywgJzIwMCcsICctaW1hZScsICc8aW5maWxlLm1hZT4nLCAnLW9tYWUnLCAnPG91dGZpbGUubWFlPic=

> <r_lp_tautomer_probability>
1

> <r_epik_Ionization_Penalty>
  0.0000

> <r_epik_Ionization_Penalty_Charging>
  0.0000

> <r_epik_Ionization_Penalty_Neutral>
  0.0000

> <r_epik_State_Penalty>
 -0.0000

> <r_epik_Charging_Adjusted_Penalty>
1.76678e-06

> <i_epik_Tot_Q>
0

> <i_epik_Tot_abs_Q>
0

> <s_epik_Chemistry_Notes>
This compound has an imine and may undergo hydrolysis.

> <s_lp_Force_Field>
OPLS3e

> <r_lp_Energy>
56.4059

> <b_lp_Chiralities_Consistent>
1

> <s_lp_Variant>
p38_p38a_2m-1

> <s_i_glide_gridfile>
p38-001-gridgen

> <i_i_glide_lignum>
19

> <i_i_glide_rotatable_bonds>
5

> <r_i_docking_score>
-10.1527480105731

> <r_i_glide_ligand_efficiency>
-0.33842493368577

> <r_i_glide_ligand_efficiency_sa>
-1.05156495358151

> <r_i_glide_ligand_efficiency_ln>
-2.306814971052

> <r_i_glide_gscore>
-10.1527480105731

> <r_i_glide_lipo>
-3.37975070795687

> <r_i_glide_hbond>
-0.701609558560367

> <r_i_glide_metal>
-0

> <r_i_glide_rewards>
-2.76824341026882

> <r_i_glide_evdw>
-47.3794441223145

> <r_i_glide_ecoul>
-10.0588312149048

> <r_i_glide_erotb>
0.574652554564387

> <r_i_glide_esite>
0

> <r_i_glide_emodel>
-84.905075050691

> <r_i_glide_energy>
-57.4382753372192

> <r_i_glide_einternal>
5.85798311233521

> <i_i_glide_confnum>
1

> <i_i_glide_posenum>
147

> <r_i_glide_eff_state_penalty>
-0

$$$$
