p38_p38a_2q
                    3D
 Schrodinger Suite 2020-3.
 59 63  0  0  1  0            999 V2000
   21.4985   13.9096   31.6882 O   0  0  0  0  0  0
   21.5616   12.6849   31.5573 C   0  0  0  0  0  0
   20.3423   11.9228   31.2756 C   0  0  0  0  0  0
   19.2098   12.6886   31.2937 O   0  0  0  0  0  0
   17.9460   12.1552   31.2003 C   0  0  0  0  0  0
   17.1656   12.4673   30.0871 C   0  0  0  0  0  0
   15.8723   11.9609   29.9764 C   0  0  0  0  0  0
   15.3331   11.1794   30.9975 C   0  0  0  0  0  0
   14.1002   10.6477   30.8670 F   0  0  0  0  0  0
   16.0862   10.9153   32.1366 C   0  0  0  0  0  0
   17.3948   11.3866   32.2333 C   0  0  0  0  0  0
   18.1318   11.0752   33.3213 F   0  0  0  0  0  0
   20.3629   10.5878   31.0301 C   0  0  0  0  0  0
   21.6194    9.8397   31.0790 C   0  0  0  0  0  0
   21.7373    8.4779   30.7984 C   0  0  0  0  0  0
   22.9234    7.8249   30.8876 N   0  0  0  0  0  0
   24.0035    8.5545   31.2582 C   0  0  0  0  0  0
   25.2119    7.8489   31.3718 N   0  0  0  0  0  0
   26.3826    8.4471   32.0113 C   0  0  0  0  0  0
   26.3617    8.1233   33.5183 C   0  0  0  0  0  0
   27.6683    8.5992   34.1835 C   0  0  0  0  0  0
   28.7955    8.0507   33.4982 O   0  0  0  0  0  0
   28.8942    8.4455   32.1289 C   0  0  0  0  0  0
   27.6677    7.9221   31.3552 C   0  0  0  0  0  0
   23.9790    9.8889   31.5201 N   0  0  0  0  0  0
   22.7861   10.5348   31.4279 C   0  0  0  0  0  0
   22.7216   11.9457   31.6705 N   0  0  0  0  0  0
   23.9736   12.6797   32.0418 C   0  0  0  0  0  0
   24.5508   12.3064   33.4439 C   0  0  0  0  0  0
   25.7284   13.1781   33.9135 C   0  0  0  0  0  0
   27.1323   13.0570   32.6788 S   0  0  0  0  0  0
   28.1847   14.0005   33.0701 O   0  0  0  0  0  0
   27.4752   11.6505   32.4569 O   0  0  0  0  0  0
   26.2161   13.7323   31.1867 C   0  0  0  0  0  0
   25.0049   12.8293   30.8790 C   0  0  0  0  0  0
   17.5777   13.0797   29.2968 H   0  0  0  0  0  0
   15.2965   12.1583   29.0898 H   0  0  0  0  0  0
   15.6755   10.2996   32.9222 H   0  0  0  0  0  0
   19.4498   10.0538   30.8237 H   0  0  0  0  0  0
   20.8841    7.8882   30.5020 H   0  0  0  0  0  0
   25.1953    6.8387   31.2902 H   0  0  0  0  0  0
   26.3523    9.5296   31.8891 H   0  0  0  0  0  0
   26.2495    7.0488   33.6741 H   0  0  0  0  0  0
   25.5086    8.6007   34.0023 H   0  0  0  0  0  0
   27.6986    8.2787   35.2242 H   0  0  0  0  0  0
   27.7279    9.6873   34.1971 H   0  0  0  0  0  0
   29.8151    8.0413   31.7064 H   0  0  0  0  0  0
   28.9745    9.5314   32.0489 H   0  0  0  0  0  0
   27.7191    8.2469   30.3151 H   0  0  0  0  0  0
   27.6843    6.8304   31.3415 H   0  0  0  0  0  0
   23.6948   13.7206   32.2104 H   0  0  0  0  0  0
   23.7541   12.3928   34.1851 H   0  0  0  0  0  0
   24.8673   11.2640   33.4694 H   0  0  0  0  0  0
   25.4254   14.2216   33.9693 H   0  0  0  0  0  0
   26.1078   12.8711   34.8876 H   0  0  0  0  0  0
   25.8907   14.7454   31.4226 H   0  0  0  0  0  0
   26.9165   13.7759   30.3531 H   0  0  0  0  0  0
   25.3712   11.8504   30.5688 H   0  0  0  0  0  0
   24.4935   13.2415   30.0074 H   0  0  0  0  0  0
  1  2  2  0  0  0
  2 27  1  0  0  0
  2  3  1  0  0  0
  3  4  1  0  0  0
  3 13  2  0  0  0
  4  5  1  0  0  0
  5 11  1  0  0  0
  5  6  2  0  0  0
  6  7  1  0  0  0
  6 36  1  0  0  0
  7  8  2  0  0  0
  7 37  1  0  0  0
  8  9  1  0  0  0
  8 10  1  0  0  0
 10 11  2  0  0  0
 10 38  1  0  0  0
 11 12  1  0  0  0
 13 14  1  0  0  0
 13 39  1  0  0  0
 14 26  2  0  0  0
 14 15  1  0  0  0
 15 16  2  0  0  0
 15 40  1  0  0  0
 16 17  1  0  0  0
 17 18  1  0  0  0
 17 25  2  0  0  0
 18 19  1  0  0  0
 18 41  1  0  0  0
 19 24  1  0  0  0
 19 20  1  0  0  0
 19 42  1  0  0  0
 20 21  1  0  0  0
 20 43  1  0  0  0
 20 44  1  0  0  0
 21 22  1  0  0  0
 21 45  1  0  0  0
 21 46  1  0  0  0
 22 23  1  0  0  0
 23 24  1  0  0  0
 23 47  1  0  0  0
 23 48  1  0  0  0
 24 49  1  0  0  0
 24 50  1  0  0  0
 25 26  1  0  0  0
 26 27  1  0  0  0
 27 28  1  0  0  0
 28 35  1  0  0  0
 28 29  1  0  0  0
 28 51  1  0  0  0
 29 30  1  0  0  0
 29 52  1  0  0  0
 29 53  1  0  0  0
 30 31  1  0  0  0
 30 54  1  0  0  0
 30 55  1  0  0  0
 31 32  2  0  0  0
 31 33  2  0  0  0
 31 34  1  0  0  0
 34 35  1  0  0  0
 34 56  1  0  0  0
 34 57  1  0  0  0
 35 58  1  0  0  0
 35 59  1  0  0  0
M  END
> <s_m_source_file>
/home/user-home/yujie/0_PBCNetv2/data/FEP/p38/inp_ligprep.csv

> <i_m_source_file_index>
31

> <i_lp_mmshare_version>
51139

> <i_f3d_flags>
0

> <s_epik_input>
RmMxW2NIXWMoRilbY0hdW2NIXWMxT2MoW2NIXTIpYyg9TyluKFtDSF0oW0NIMl1bQ0gyXTMpW0NIMl1bQ0gyXVMzKD1PKT1PKWMoYzI0KW5jKG5bY0hdNClbTkhdW0NIXTVbQ0gyXVtDSDJdT1tDSDJdW0NIMl01

> <s_epik_cmdline>
J2VwaWtfcHl0aG9uJywgJy1waHQnLCAnMi4wJywgJy1waCcsICc3LjQnLCAnLXRuJywgJzgnLCAnLW1hJywgJzIwMCcsICctaW1hZScsICc8aW5maWxlLm1hZT4nLCAnLW9tYWUnLCAnPG91dGZpbGUubWFlPic=

> <r_lp_tautomer_probability>
1

> <r_epik_Ionization_Penalty>
  0.0000

> <r_epik_Ionization_Penalty_Charging>
  0.0000

> <r_epik_Ionization_Penalty_Neutral>
  0.0000

> <r_epik_State_Penalty>
 -0.0000

> <r_epik_Charging_Adjusted_Penalty>
2.03433e-06

> <i_epik_Tot_Q>
0

> <i_epik_Tot_abs_Q>
0

> <s_epik_Chemistry_Notes>
This compound has an imine and may undergo hydrolysis.

> <s_lp_Force_Field>
OPLS3e

> <r_lp_Energy>
59.9813

> <b_lp_Chiralities_Consistent>
1

> <s_lp_Variant>
p38_p38a_2q-1

> <s_i_glide_gridfile>
p38-001-gridgen

> <i_i_glide_lignum>
32

> <i_i_glide_rotatable_bonds>
5

> <r_i_docking_score>
-10.5225679342749

> <r_i_glide_ligand_efficiency>
-0.30064479812214

> <r_i_glide_ligand_efficiency_sa>
-0.983429069305303

> <r_i_glide_ligand_efficiency_ln>
-2.30993719738606

> <r_i_glide_gscore>
-10.5225679342749

> <r_i_glide_lipo>
-3.55368406479103

> <r_i_glide_hbond>
-0.864

> <r_i_glide_metal>
-0

> <r_i_glide_rewards>
-2.20094053926193

> <r_i_glide_evdw>
-50.9935417175293

> <r_i_glide_ecoul>
-11.6015558242798

> <r_i_glide_erotb>
0.398739468207624

> <r_i_glide_esite>
-0.0127723389111257

> <r_i_glide_emodel>
-99.7719255277873

> <r_i_glide_energy>
-62.5950975418091

> <r_i_glide_einternal>
1.44138514995575

> <i_i_glide_confnum>
33

> <i_i_glide_posenum>
370

> <r_i_glide_eff_state_penalty>
-0

$$$$
