p38_p38a_2v
                    3D
 Schrodinger Suite 2020-3.
 35 37  0  0  1  0            999 V2000
   26.6213    8.5558   31.0450 C   0  0  0  0  0  0
   25.3326    7.8779   30.9857 N   0  0  0  0  0  0
   24.1236    8.5869   30.9480 C   0  0  0  0  0  0
   23.0013    7.8248   30.8880 N   0  0  0  0  0  0
   21.8091    8.4737   30.8867 C   0  0  0  0  0  0
   21.7276    9.8638   30.9452 C   0  0  0  0  0  0
   20.4724   10.6158   31.0260 C   0  0  0  0  0  0
   20.4828   11.9666   31.1744 C   0  0  0  0  0  0
   19.3587   12.7334   31.3080 O   0  0  0  0  0  0
   18.0830   12.2243   31.2129 C   0  0  0  0  0  0
   17.2984   12.6249   30.1295 C   0  0  0  0  0  0
   15.9717   12.2080   30.0336 C   0  0  0  0  0  0
   15.4160   11.3971   31.0178 C   0  0  0  0  0  0
   14.1454   10.9577   30.8877 F   0  0  0  0  0  0
   16.1801   11.0245   32.1206 C   0  0  0  0  0  0
   17.5141   11.4246   32.2163 C   0  0  0  0  0  0
   18.2447   11.0432   33.2869 F   0  0  0  0  0  0
   21.7302   12.7443   31.1957 C   0  0  0  0  0  0
   21.7119   13.9766   31.2893 O   0  0  0  0  0  0
   22.8847   12.0042   31.0910 N   0  0  0  0  0  0
   24.1737   12.7286   31.0855 C   0  0  0  0  0  0
   22.9307   10.5817   30.9898 C   0  0  0  0  0  0
   24.1381    9.9473   30.9882 N   0  0  0  0  0  0
   27.4312    7.8247   31.0368 H   0  0  0  0  0  0
   26.7056    9.1482   31.9570 H   0  0  0  0  0  0
   26.7529    9.2175   30.1875 H   0  0  0  0  0  0
   25.3186    6.8636   31.0175 H   0  0  0  0  0  0
   20.9203    7.8592   30.8639 H   0  0  0  0  0  0
   19.5400   10.0728   30.9987 H   0  0  0  0  0  0
   17.7207   13.2642   29.3669 H   0  0  0  0  0  0
   15.3647   12.5087   29.1989 H   0  0  0  0  0  0
   15.7425   10.4028   32.8880 H   0  0  0  0  0  0
   24.0795   13.8151   31.1159 H   0  0  0  0  0  0
   24.7746   12.4300   31.9453 H   0  0  0  0  0  0
   24.7374   12.4818   30.1849 H   0  0  0  0  0  0
  1  2  1  0  0  0
  1 24  1  0  0  0
  1 25  1  0  0  0
  1 26  1  0  0  0
  2  3  1  0  0  0
  2 27  1  0  0  0
  3 23  1  0  0  0
  3  4  2  0  0  0
  4  5  1  0  0  0
  5  6  2  0  0  0
  5 28  1  0  0  0
  6 22  1  0  0  0
  6  7  1  0  0  0
  7  8  2  0  0  0
  7 29  1  0  0  0
  8  9  1  0  0  0
  8 18  1  0  0  0
  9 10  1  0  0  0
 10 16  1  0  0  0
 10 11  2  0  0  0
 11 12  1  0  0  0
 11 30  1  0  0  0
 12 13  2  0  0  0
 12 31  1  0  0  0
 13 14  1  0  0  0
 13 15  1  0  0  0
 15 16  2  0  0  0
 15 32  1  0  0  0
 16 17  1  0  0  0
 18 19  2  0  0  0
 18 20  1  0  0  0
 20 21  1  0  0  0
 20 22  1  0  0  0
 21 33  1  0  0  0
 21 34  1  0  0  0
 21 35  1  0  0  0
 22 23  2  0  0  0
M  END
> <s_m_source_file>
/home/user-home/yujie/0_PBCNetv2/data/FEP/p38/inp_ligprep.csv

> <i_m_source_file_index>
13

> <i_lp_mmshare_version>
51139

> <i_f3d_flags>
0

> <s_epik_input>
W0NIM11bTkhdYyhuW2NIXTEpbmMoYzEyKW4oW0NIM10pYyg9TyljKFtjSF0yKU9jM1tjSF1bY0hdYyhGKVtjSF1jM0Y=

> <s_epik_cmdline>
J2VwaWtfcHl0aG9uJywgJy1waHQnLCAnMi4wJywgJy1waCcsICc3LjQnLCAnLXRuJywgJzgnLCAnLW1hJywgJzIwMCcsICctaW1hZScsICc8aW5maWxlLm1hZT4nLCAnLW9tYWUnLCAnPG91dGZpbGUubWFlPic=

> <r_lp_tautomer_probability>
1

> <r_epik_Ionization_Penalty>
  0.0000

> <r_epik_Ionization_Penalty_Charging>
  0.0000

> <r_epik_Ionization_Penalty_Neutral>
  0.0000

> <r_epik_State_Penalty>
 -0.0000

> <r_epik_Charging_Adjusted_Penalty>
1.47076e-06

> <i_epik_Tot_Q>
0

> <i_epik_Tot_abs_Q>
0

> <s_epik_Chemistry_Notes>
This compound has an imine and may undergo hydrolysis.

> <s_lp_Force_Field>
OPLS3e

> <r_lp_Energy>
48.4174

> <b_lp_Chiralities_Consistent>
1

> <s_lp_Variant>
p38_p38a_2v-1

> <s_i_glide_gridfile>
p38-001-gridgen

> <i_i_glide_lignum>
13

> <i_i_glide_rotatable_bonds>
3

> <r_i_docking_score>
-10.1396119782437

> <r_i_glide_ligand_efficiency>
-0.440852694706249

> <r_i_glide_ligand_efficiency_sa>
-1.25372642014333

> <r_i_glide_ligand_efficiency_ln>
-2.45185011725753

> <r_i_glide_gscore>
-10.1396119782437

> <r_i_glide_lipo>
-2.96881088135162

> <r_i_glide_hbond>
-0.877372154568545

> <r_i_glide_metal>
-0

> <r_i_glide_rewards>
-3.33421317859211

> <r_i_glide_evdw>
-38.4990081787109

> <r_i_glide_ecoul>
-9.30185127258301

> <r_i_glide_erotb>
0.36806454950583

> <r_i_glide_esite>
-0.00705221341428428

> <r_i_glide_emodel>
-73.3875213789562

> <r_i_glide_energy>
-47.8008594512939

> <r_i_glide_einternal>
1.75454556941986

> <i_i_glide_confnum>
4

> <i_i_glide_posenum>
136

> <r_i_glide_eff_state_penalty>
-0

$$$$
