p38_p38a_2f
                    3D
 Schrodinger Suite 2024-1.
 46 49  0  0  1  0            999 V2000
   24.2962   12.6552   32.1327 C   0  0  0  0  0  0
   23.0572   11.9239   31.7941 N   0  0  0  0  0  0
   21.9080   12.6553   31.6171 C   0  0  0  0  0  0
   21.8489   13.8851   31.6875 O   0  0  0  0  0  0
   20.7023   11.8693   31.3433 C   0  0  0  0  0  0
   19.5727   12.6258   31.2447 O   0  0  0  0  0  0
   18.3141   12.0864   31.3305 C   0  0  0  0  0  0
   17.8686   11.4384   32.4881 C   0  0  0  0  0  0
   16.5399   11.0248   32.5879 C   0  0  0  0  0  0
   15.6688   11.2053   31.5146 C   0  0  0  0  0  0
   16.1265   11.8249   30.3529 C   0  0  0  0  0  0
   15.3168   11.9593   29.2881 F   0  0  0  0  0  0
   17.4331   12.2938   30.2744 C   0  0  0  0  0  0
   20.7296   10.5219   31.1809 C   0  0  0  0  0  0
   21.9887    9.7862   31.3140 C   0  0  0  0  0  0
   22.1213    8.4142   31.1170 C   0  0  0  0  0  0
   23.3100    7.7827   31.2877 N   0  0  0  0  0  0
   24.3728    8.5357   31.6702 C   0  0  0  0  0  0
   25.5564    7.8257   31.9289 N   0  0  0  0  0  0
   26.7254    8.4603   32.5477 C   0  0  0  0  0  0
   26.5066    8.6201   34.0729 C   0  0  0  0  0  0
   26.5825    7.2728   34.8185 C   0  0  0  0  0  0
   27.8344    6.6527   34.5424 O   0  0  0  0  0  0
   28.0182    6.3181   33.1698 C   0  0  0  0  0  0
   27.9828    7.5963   32.2988 C   0  0  0  0  0  0
   24.3401    9.8852   31.8417 N   0  0  0  0  0  0
   23.1423   10.5075   31.6529 C   0  0  0  0  0  0
   24.7039   12.2837   33.0742 H   0  0  0  0  0  0
   25.0501   12.4970   31.3598 H   0  0  0  0  0  0
   24.1649   13.7327   32.2433 H   0  0  0  0  0  0
   18.5415   11.2969   33.3214 H   0  0  0  0  0  0
   16.1895   10.5413   33.4896 H   0  0  0  0  0  0
   14.6494   10.8537   31.5769 H   0  0  0  0  0  0
   17.7722   12.8005   29.3822 H   0  0  0  0  0  0
   19.8205    9.9800   30.9595 H   0  0  0  0  0  0
   21.2765    7.8013   30.8339 H   0  0  0  0  0  0
   25.5167    6.8144   31.8933 H   0  0  0  0  0  0
   26.8630    9.4510   32.1083 H   0  0  0  0  0  0
   27.2650    9.2924   34.4747 H   0  0  0  0  0  0
   25.5499    9.1013   34.2812 H   0  0  0  0  0  0
   26.5188    7.4253   35.8950 H   0  0  0  0  0  0
   25.7549    6.6173   34.5426 H   0  0  0  0  0  0
   28.9841    5.8234   33.0710 H   0  0  0  0  0  0
   27.2677    5.5897   32.8663 H   0  0  0  0  0  0
   28.0567    7.3212   31.2463 H   0  0  0  0  0  0
   28.8704    8.1933   32.5099 H   0  0  0  0  0  0
  1  2  1  0  0  0
  1 28  1  0  0  0
  1 29  1  0  0  0
  1 30  1  0  0  0
  2 27  1  0  0  0
  2  3  1  0  0  0
  3  4  2  0  0  0
  3  5  1  0  0  0
  5  6  1  0  0  0
  5 14  2  0  0  0
  6  7  1  0  0  0
  7 13  1  0  0  0
  7  8  2  0  0  0
  8  9  1  0  0  0
  8 31  1  0  0  0
  9 10  2  0  0  0
  9 32  1  0  0  0
 10 11  1  0  0  0
 10 33  1  0  0  0
 11 12  1  0  0  0
 11 13  2  0  0  0
 13 34  1  0  0  0
 14 15  1  0  0  0
 14 35  1  0  0  0
 15 27  2  0  0  0
 15 16  1  0  0  0
 16 17  2  0  0  0
 16 36  1  0  0  0
 17 18  1  0  0  0
 18 19  1  0  0  0
 18 26  2  0  0  0
 19 20  1  0  0  0
 19 37  1  0  0  0
 20 25  1  0  0  0
 20 21  1  0  0  0
 20 38  1  0  0  0
 21 22  1  0  0  0
 21 39  1  0  0  0
 21 40  1  0  0  0
 22 23  1  0  0  0
 22 41  1  0  0  0
 22 42  1  0  0  0
 23 24  1  0  0  0
 24 25  1  0  0  0
 24 43  1  0  0  0
 24 44  1  0  0  0
 25 45  1  0  0  0
 25 46  1  0  0  0
 26 27  1  0  0  0
M  END
> <Tot Q>
0

> <Source File Index>
791

> <i_f3d_flags>
0

> <subgroup collapsed>
0

> <Ionization Penalty>
0

> <State Penalty>
0

> <docking score>
-9.08227

> <glide emodel>
-75.3307

> <glide gscore>
-9.08227

> <tautomer probability>
1

> <Source File>
p38p38_dock_SP_confgen_100_lib.maegz

> <Source Path>
C:\Users\yujie\Desktop\FEPs\p38

> <entry id>
862

> <subgroup title>
p38p38_dock_SP_confgen_100_lib

> <subgroupid>
p38p38_dock_SP_confgen_100_lib

$$$$
