/home/yujie/leadopt/data/result/selection/sEH/lig_6a.sdf:1
                    3D
 Schrodinger Suite 2024-1.
 49 52  0  0  1  0            999 V2000
   -1.3264  -15.3327   25.7248 O   0  0  0  0  0  0
   -0.9687  -14.7438   26.7472 C   0  0  0  0  0  0
    0.1609  -13.7388   26.7002 C   0  0  0  0  0  0
    0.6699  -13.1048   27.8567 C   0  0  0  0  0  0
    1.6824  -12.1368   27.7602 C   0  0  0  0  0  0
    2.1796  -11.8122   26.4956 C   0  0  0  0  0  0
    3.1081  -10.8873   26.0486 N   0  0  0  0  0  0
    4.0528  -10.1086   26.8551 C   0  0  0  0  0  0
    5.4767  -10.6443   26.7748 C   0  0  0  0  0  0
    6.3366  -10.1595   25.7862 C   0  0  0  0  0  0
    7.5993  -10.7169   25.6270 C   0  0  0  0  0  0
    8.0080  -11.7369   26.4764 C   0  0  0  0  0  0
    7.1869  -12.1658   27.5179 C   0  0  0  0  0  0
    5.9134  -11.6234   27.6659 C   0  0  0  0  0  0
    3.1618  -10.8780   24.6876 C   0  0  0  0  0  0
    2.3100  -11.8411   24.3021 N   0  0  0  0  0  0
    3.8405  -10.1709   23.9454 O   0  0  0  0  0  0
    1.6782  -12.4097   25.3763 C   0  0  0  0  0  0
    0.6958  -13.3854   25.4491 C   0  0  0  0  0  0
   -1.6427  -14.8928   27.8966 N   0  0  0  0  0  0
   -2.8173  -15.7507   28.0874 C   0  0  0  0  0  0
   -2.5561  -17.2654   28.1103 C   0  0  0  0  0  0
   -3.5127  -18.1989   27.6463 C   0  0  0  0  0  0
   -4.8603  -17.7592   27.0557 C   0  0  0  0  0  0
   -5.6797  -18.7866   26.8219 F   0  0  0  0  0  0
   -5.4864  -16.9384   27.8955 F   0  0  0  0  0  0
   -4.6621  -17.1258   25.8988 F   0  0  0  0  0  0
   -3.2257  -19.5702   27.7392 C   0  0  0  0  0  0
   -2.0156  -20.0175   28.2628 C   0  0  0  0  0  0
   -1.0670  -19.0984   28.6947 C   0  0  0  0  0  0
   -1.3347  -17.7347   28.6160 C   0  0  0  0  0  0
    0.2810  -13.3401   28.8383 H   0  0  0  0  0  0
    2.0499  -11.6547   28.6538 H   0  0  0  0  0  0
    4.0314   -9.0756   26.5098 H   0  0  0  0  0  0
    3.7305  -10.0845   27.8953 H   0  0  0  0  0  0
    6.0137   -9.3839   25.1092 H   0  0  0  0  0  0
    8.2477  -10.3767   24.8340 H   0  0  0  0  0  0
    8.9729  -12.1915   26.3014 H   0  0  0  0  0  0
    7.5262  -12.9308   28.1980 H   0  0  0  0  0  0
    5.2608  -11.9825   28.4467 H   0  0  0  0  0  0
    2.1677  -12.0962   23.3316 H   0  0  0  0  0  0
    0.3282  -13.8366   24.5381 H   0  0  0  0  0  0
   -1.2714  -14.5239   28.7743 H   0  0  0  0  0  0
   -3.5499  -15.4794   27.3305 H   0  0  0  0  0  0
   -3.2642  -15.4803   29.0442 H   0  0  0  0  0  0
   -3.9391  -20.3058   27.3977 H   0  0  0  0  0  0
   -1.8088  -21.0760   28.3259 H   0  0  0  0  0  0
   -0.1277  -19.4434   29.1037 H   0  0  0  0  0  0
   -0.5906  -17.0394   28.9804 H   0  0  0  0  0  0
  1  2  2  0  0  0
  2  3  1  0  0  0
  2 20  1  0  0  0
  3 19  1  0  0  0
  3  4  2  0  0  0
  4  5  1  0  0  0
  4 32  1  0  0  0
  5  6  2  0  0  0
  5 33  1  0  0  0
  6  7  1  0  0  0
  6 18  1  0  0  0
  7  8  1  0  0  0
  7 15  1  0  0  0
  8  9  1  0  0  0
  8 34  1  0  0  0
  8 35  1  0  0  0
  9 14  1  0  0  0
  9 10  2  0  0  0
 10 11  1  0  0  0
 10 36  1  0  0  0
 11 12  2  0  0  0
 11 37  1  0  0  0
 12 13  1  0  0  0
 12 38  1  0  0  0
 13 14  2  0  0  0
 13 39  1  0  0  0
 14 40  1  0  0  0
 15 16  1  0  0  0
 15 17  2  0  0  0
 16 18  1  0  0  0
 16 41  1  0  0  0
 18 19  2  0  0  0
 19 42  1  0  0  0
 20 21  1  0  0  0
 20 43  1  0  0  0
 21 22  1  0  0  0
 21 44  1  0  0  0
 21 45  1  0  0  0
 22 31  1  0  0  0
 22 23  2  0  0  0
 23 24  1  0  0  0
 23 28  1  0  0  0
 24 25  1  0  0  0
 24 26  1  0  0  0
 24 27  1  0  0  0
 28 29  2  0  0  0
 28 46  1  0  0  0
 29 30  1  0  0  0
 29 47  1  0  0  0
 30 31  2  0  0  0
 30 48  1  0  0  0
 31 49  1  0  0  0
M  END
> <Tot Q>
0

> <Source File Index>
3

> <i_f3d_flags>
0

> <subgroup collapsed>
0

> <Ionization Penalty>
0

> <State Penalty>
0

> <docking score>
-11.825

> <glide emodel>
-100.236

> <glide gscore>
-11.825

> <tautomer probability>
1

> <Source File>
sEH_lig_6a_ligprepout_dock_SP_confgen_pv.maegz

> <Source Path>
C:\Users\yujie\Desktop\FT_and_sele\Jupyter

> <entry id>
579

> <subgroup title>
sEH_lig_6a_ligprepout_dock_SP_confgen_pv

> <subgroupid>
sEH_lig_6a_ligprepout_dock_SP_confgen_pv

$$$$
