KAW
                    3D
 Schrodinger Suite 2024-1.
 69 72  0  0  1  0            999 V2000
   44.0146   47.3976   39.2254 C   0  0  0  0  0  0
   43.0985   46.4832   39.8002 C   0  0  0  0  0  0
   41.7232   46.5367   39.4909 C   0  0  0  0  0  0
   41.2262   47.5162   38.6119 C   0  0  0  0  0  0
   42.1055   48.4437   38.0253 C   0  0  0  0  0  0
   43.4770   48.3717   38.3278 C   0  0  0  0  0  0
   44.5724   49.0986   37.9148 N   0  0  0  0  0  0
   45.7374   48.6299   38.4862 C   0  0  0  0  0  0
   45.4600   47.6003   39.3182 C   0  0  0  0  0  0
   46.4737   46.8238   40.1158 C   0  0  0  0  0  0
   46.9520   47.4076   41.4640 C   0  0  1  0  0  0
   47.7386   48.7212   41.2343 C   0  0  0  0  0  0
   47.1712   49.8171   41.4212 O   0  0  0  0  0  0
   48.9374   48.6190   40.8778 O   0  5  0  0  0  0
   45.7821   47.5842   42.3346 N   0  0  0  0  0  0
   45.7762   47.4582   43.6698 C   0  0  0  0  0  0
   46.7972   47.2125   44.3146 O   0  0  0  0  0  0
   44.4249   47.6430   44.3789 C   0  0  0  0  0  0
   44.4640   47.3619   45.9053 C   0  0  0  0  0  0
   44.3202   45.8727   46.3455 C   0  0  0  0  0  0
   44.9373   45.0188   45.4125 O   0  0  0  0  0  0
   42.9375   45.5979   46.3985 O   0  0  0  0  0  0
   44.9751   45.5659   47.7268 C   0  0  2  0  0  0
   46.5176   45.7497   47.7506 C   0  0  0  0  0  0
   47.1369   45.6303   49.1307 C   0  0  0  0  0  0
   47.3373   46.7874   49.9112 C   0  0  0  0  0  0
   47.9279   46.6893   51.1861 C   0  0  0  0  0  0
   48.3274   45.4330   51.6830 C   0  0  0  0  0  0
   48.1335   44.2757   50.9042 C   0  0  0  0  0  0
   47.5408   44.3743   49.6304 C   0  0  0  0  0  0
   44.6653   44.1909   48.1375 N   0  0  0  0  0  0
   43.9281   43.8179   49.1927 C   0  0  0  0  0  0
   43.3377   44.6190   49.9145 O   0  0  0  0  0  0
   43.8806   42.3397   49.4835 C   0  0  0  0  0  0
   43.1613   41.8731   50.6074 C   0  0  0  0  0  0
   43.0918   40.4959   50.8946 C   0  0  0  0  0  0
   43.7371   39.5669   50.0587 C   0  0  0  0  0  0
   44.4600   40.0156   48.9388 C   0  0  0  0  0  0
   44.5372   41.3934   48.6548 C   0  0  0  0  0  0
   43.4599   45.7233   40.4784 H   0  0  0  0  0  0
   41.0385   45.8185   39.9173 H   0  0  0  0  0  0
   40.1694   47.5484   38.3883 H   0  0  0  0  0  0
   41.7319   49.1975   37.3473 H   0  0  0  0  0  0
   44.5508   49.8858   37.2823 H   0  0  0  0  0  0
   46.7311   49.0191   38.3195 H   0  0  0  0  0  0
   46.0698   45.8249   40.2813 H   0  0  0  0  0  0
   47.3384   46.6738   39.4743 H   0  0  0  0  0  0
   47.6446   46.6892   41.9187 H   0  0  0  0  0  0
   44.9273   47.8622   41.8764 H   0  0  0  0  0  0
   44.1146   48.6775   44.2194 H   0  0  0  0  0  0
   43.6708   47.0210   43.8968 H   0  0  0  0  0  0
   45.3701   47.8091   46.3081 H   0  0  0  0  0  0
   43.6825   47.9488   46.3906 H   0  0  0  0  0  0
   44.6535   44.1289   45.5913 H   0  0  0  0  0  0
   42.4844   46.2650   46.9084 H   0  0  0  0  0  0
   44.5516   46.2723   48.4409 H   0  0  0  0  0  0
   46.9953   45.0108   47.1077 H   0  0  0  0  0  0
   46.8152   46.7181   47.3529 H   0  0  0  0  0  0
   47.0387   47.7539   49.5328 H   0  0  0  0  0  0
   48.0781   47.5783   51.7831 H   0  0  0  0  0  0
   48.7820   45.3579   52.6600 H   0  0  0  0  0  0
   48.4417   43.3119   51.2835 H   0  0  0  0  0  0
   47.3984   43.4828   49.0392 H   0  0  0  0  0  0
   45.0925   43.4564   47.5997 H   0  0  0  0  0  0
   42.6562   42.5714   51.2601 H   0  0  0  0  0  0
   42.5401   40.1501   51.7549 H   0  0  0  0  0  0
   43.6722   38.5113   50.2733 H   0  0  0  0  0  0
   44.9464   39.3050   48.2875 H   0  0  0  0  0  0
   45.0847   41.6970   47.7747 H   0  0  0  0  0  0
  1  2  2  0  0  0
  1  6  1  0  0  0
  1  9  1  0  0  0
  2  3  1  0  0  0
  2 40  1  0  0  0
  3  4  2  0  0  0
  3 41  1  0  0  0
  4  5  1  0  0  0
  4 42  1  0  0  0
  5  6  2  0  0  0
  5 43  1  0  0  0
  6  7  1  0  0  0
  7  8  1  0  0  0
  7 44  1  0  0  0
  8  9  2  0  0  0
  8 45  1  0  0  0
  9 10  1  0  0  0
 10 11  1  0  0  0
 10 46  1  0  0  0
 10 47  1  0  0  0
 11 12  1  0  0  0
 11 15  1  0  0  0
 11 48  1  0  0  0
 12 13  2  0  0  0
 12 14  1  0  0  0
 15 16  1  0  0  0
 15 49  1  0  0  0
 16 17  2  0  0  0
 16 18  1  0  0  0
 18 19  1  0  0  0
 18 50  1  0  0  0
 18 51  1  0  0  0
 19 20  1  0  0  0
 19 52  1  0  0  0
 19 53  1  0  0  0
 20 21  1  0  0  0
 20 22  1  0  0  0
 20 23  1  0  0  0
 21 54  1  0  0  0
 22 55  1  0  0  0
 23 24  1  0  0  0
 23 31  1  0  0  0
 23 56  1  0  0  0
 24 25  1  0  0  0
 24 57  1  0  0  0
 24 58  1  0  0  0
 25 26  2  0  0  0
 25 30  1  0  0  0
 26 27  1  0  0  0
 26 59  1  0  0  0
 27 28  2  0  0  0
 27 60  1  0  0  0
 28 29  1  0  0  0
 28 61  1  0  0  0
 29 30  2  0  0  0
 29 62  1  0  0  0
 30 63  1  0  0  0
 31 32  1  0  0  0
 31 64  1  0  0  0
 32 33  2  0  0  0
 32 34  1  0  0  0
 34 35  2  0  0  0
 34 39  1  0  0  0
 35 36  1  0  0  0
 35 65  1  0  0  0
 36 37  2  0  0  0
 36 66  1  0  0  0
 37 38  1  0  0  0
 37 67  1  0  0  0
 38 39  2  0  0  0
 38 68  1  0  0  0
 39 69  1  0  0  0
M  CHG  1  14  -1
M  END
> <i_epik_Tot_Q>
-1

> <i_epik_Tot_abs_Q>
1

> <i_f3d_flags>
0

> <i_i_glide_confnum>
471

> <i_i_glide_lignum>
1

> <i_i_glide_posenum>
373

> <i_i_glide_rotatable_bonds>
16

> <i_lp_mmshare_version>
65135

> <i_m_Source_File_Index>
1

> <i_m_source_file_index>
1

> <i_m_stars>
0

> <b_lp_Chiralities_Consistent>
1

> <b_m_subgroup_collapsed>
0

> <r_epik_Charging_Adjusted_Penalty>
0.000113601

> <r_epik_Ionization_Penalty>
0.0001

> <r_epik_Ionization_Penalty_Charging>
0.0001

> <r_epik_Ionization_Penalty_Neutral>
0

> <r_epik_State_Penalty>
0

> <r_i_docking_score>
-11.4801

> <r_i_glide_ecoul>
-26.1428

> <r_i_glide_eff_state_penalty>
0

> <r_i_glide_einternal>
11.9138

> <r_i_glide_emodel>
-156.672

> <r_i_glide_energy>
-86.4299

> <r_i_glide_erotb>
0.737397

> <r_i_glide_esite>
-0.146713

> <r_i_glide_evdw>
-60.2871

> <r_i_glide_gscore>
-11.4801

> <r_i_glide_hbond>
-0.963844

> <r_i_glide_ligand_efficiency>
-0.294361

> <r_i_glide_ligand_efficiency_ln>
-2.46166

> <r_i_glide_ligand_efficiency_sa>
-0.998242

> <r_i_glide_lipo>
-3.58959

> <r_i_glide_metal>
0

> <r_i_glide_rewards>
-0.581565

> <r_lp_Energy>
37.4878

> <r_lp_tautomer_probability>
1

> <s_epik_cmdline>
J2VwaWtfcHl0aG9uJywgJy1waCcsICc3LjAnLCAnLXRuJywgJzgnLCAnLW1hJywgJzUwMCcsICctaW1hZScsICc8aW5maWxlLm1hZT4nLCAnLW9tYWUnLCAnPG91dGZpbGUubWFlPic=

> <s_epik_input>
W2NIXTFbY0hdW2NIXVtjSF1jKGMxMilbbkhdW2NIXWMyW0NIMl1bQ0BASF0oQyg9TylbT0hdKVtOSF1DKD1PKVtDSDJdW0NIMl1DKFtPSF0pKFtPSF0pW0NASF0oW0NIMl1jM1tjSF1bY0hdW2NIXVtjSF1bY0hdMylbTkhdQyg9TyljNFtjSF1bY0hdW2NIXVtjSF1bY0hdNA==

> <s_i_glide_gridfile>
glide-grid_P12821_MT_V518T

> <s_lp_Force_Field>
S-OPLS

> <s_lp_Variant>
KAW-1

> <s_m_Source_File>
glide-dock_SP_P12821_MT_V518T_pv.maegz

> <s_m_Source_Path>
D:\project\glide-dock_SP_P12821_MT_V518T

> <s_m_entry_id>
1191

> <s_m_entry_name>
Structure999

> <s_m_job_name>
glide-dock_SP_P12821_MT_V518T

> <s_m_source_file>
ligprep_KAW.maegz

> <s_m_subgroup_title>
glide-dock_SP_P12821_MT_V518T_pv

> <s_m_subgroupid>
glide-dock_SP_P12821_MT_V518T_pv

> <s_pdb_PDB_TITLE>
WT_3BKL_complex

> <s_pdb_PDB_format_version>
3.0

$$$$
