KAW
                    3D
 Schrodinger Suite 2024-1.
 69 72  0  0  1  0            999 V2000
   44.3347   48.0559   39.0365 C   0  0  0  0  0  0
   44.8504   49.2779   38.5429 C   0  0  0  0  0  0
   44.0109   50.2343   37.9337 C   0  0  0  0  0  0
   42.6290   49.9913   37.8036 C   0  0  0  0  0  0
   42.0820   48.7855   38.2796 C   0  0  0  0  0  0
   42.9289   47.8389   38.8836 C   0  0  0  0  0  0
   42.7104   46.5934   39.4367 N   0  0  0  0  0  0
   43.8791   46.0424   39.9187 C   0  0  0  0  0  0
   44.9109   46.8943   39.7117 C   0  0  0  0  0  0
   46.3348   46.6304   40.1291 C   0  0  0  0  0  0
   46.8395   47.2314   41.4717 C   0  0  1  0  0  0
   47.7179   48.4737   41.2074 C   0  0  0  0  0  0
   47.1839   49.5986   41.1047 O   0  0  0  0  0  0
   48.9525   48.2833   41.1041 O   0  5  0  0  0  0
   45.6908   47.5240   42.3431 N   0  0  0  0  0  0
   45.6634   47.3985   43.6767 C   0  0  0  0  0  0
   46.6563   47.0833   44.3304 O   0  0  0  0  0  0
   44.3186   47.6284   44.3869 C   0  0  0  0  0  0
   44.3660   47.3661   45.9168 C   0  0  0  0  0  0
   44.3083   45.8831   46.3960 C   0  0  0  0  0  0
   44.9528   45.0148   45.5040 O   0  0  0  0  0  0
   42.9525   45.4832   46.4622 O   0  0  0  0  0  0
   45.0026   45.6524   47.7697 C   0  0  2  0  0  0
   46.5350   45.9178   47.7702 C   0  0  0  0  0  0
   47.1818   45.7314   49.1307 C   0  0  0  0  0  0
   47.6084   44.4560   49.5593 C   0  0  0  0  0  0
   48.1785   44.2928   50.8361 C   0  0  0  0  0  0
   48.3467   45.4070   51.6800 C   0  0  0  0  0  0
   47.9388   46.6832   51.2480 C   0  0  0  0  0  0
   47.3567   46.8442   49.9760 C   0  0  0  0  0  0
   44.7704   44.2710   48.2007 N   0  0  0  0  0  0
   43.9837   43.8768   49.2108 C   0  0  0  0  0  0
   43.3525   44.6705   49.9041 O   0  0  0  0  0  0
   43.9222   42.3926   49.4667 C   0  0  0  0  0  0
   44.5526   41.4608   48.6035 C   0  0  0  0  0  0
   44.4591   40.0769   48.8468 C   0  0  0  0  0  0
   43.7393   39.6052   49.9591 C   0  0  0  0  0  0
   43.1089   40.5190   50.8234 C   0  0  0  0  0  0
   43.1997   41.9029   50.5788 C   0  0  0  0  0  0
   45.9060   49.4807   38.6459 H   0  0  0  0  0  0
   44.4260   51.1629   37.5703 H   0  0  0  0  0  0
   41.9906   50.7307   37.3410 H   0  0  0  0  0  0
   41.0234   48.5925   38.1850 H   0  0  0  0  0  0
   41.8164   46.1213   39.5045 H   0  0  0  0  0  0
   43.9692   45.0835   40.4068 H   0  0  0  0  0  0
   46.4399   45.5478   40.1965 H   0  0  0  0  0  0
   46.9853   46.9141   39.3009 H   0  0  0  0  0  0
   47.4798   46.4867   41.9498 H   0  0  0  0  0  0
   44.8520   47.8388   41.8762 H   0  0  0  0  0  0
   44.0368   48.6687   44.2185 H   0  0  0  0  0  0
   43.5417   47.0229   43.9202 H   0  0  0  0  0  0
   45.2509   47.8667   46.3027 H   0  0  0  0  0  0
   43.5650   47.9200   46.4021 H   0  0  0  0  0  0
   45.8087   45.3798   45.2918 H   0  0  0  0  0  0
   42.4470   46.1661   46.9106 H   0  0  0  0  0  0
   44.5529   46.3427   48.4829 H   0  0  0  0  0  0
   47.0411   45.2551   47.0681 H   0  0  0  0  0  0
   46.7658   46.9279   47.4376 H   0  0  0  0  0  0
   47.4872   43.5965   48.9172 H   0  0  0  0  0  0
   48.4947   43.3144   51.1664 H   0  0  0  0  0  0
   48.7901   45.2843   52.6573 H   0  0  0  0  0  0
   48.0699   47.5390   51.8940 H   0  0  0  0  0  0
   47.0408   47.8264   49.6531 H   0  0  0  0  0  0
   45.2914   43.5606   47.7110 H   0  0  0  0  0  0
   45.1021   41.7795   47.7303 H   0  0  0  0  0  0
   44.9339   39.3778   48.1733 H   0  0  0  0  0  0
   43.6641   38.5442   50.1471 H   0  0  0  0  0  0
   42.5536   40.1596   51.6767 H   0  0  0  0  0  0
   42.7062   42.5883   51.2536 H   0  0  0  0  0  0
  1  2  2  0  0  0
  1  6  1  0  0  0
  1  9  1  0  0  0
  2  3  1  0  0  0
  2 40  1  0  0  0
  3  4  2  0  0  0
  3 41  1  0  0  0
  4  5  1  0  0  0
  4 42  1  0  0  0
  5  6  2  0  0  0
  5 43  1  0  0  0
  6  7  1  0  0  0
  7  8  1  0  0  0
  7 44  1  0  0  0
  8  9  2  0  0  0
  8 45  1  0  0  0
  9 10  1  0  0  0
 10 11  1  0  0  0
 10 46  1  0  0  0
 10 47  1  0  0  0
 11 12  1  0  0  0
 11 15  1  0  0  0
 11 48  1  0  0  0
 12 13  2  0  0  0
 12 14  1  0  0  0
 15 16  1  0  0  0
 15 49  1  0  0  0
 16 17  2  0  0  0
 16 18  1  0  0  0
 18 19  1  0  0  0
 18 50  1  0  0  0
 18 51  1  0  0  0
 19 20  1  0  0  0
 19 52  1  0  0  0
 19 53  1  0  0  0
 20 21  1  0  0  0
 20 22  1  0  0  0
 20 23  1  0  0  0
 21 54  1  0  0  0
 22 55  1  0  0  0
 23 24  1  0  0  0
 23 31  1  0  0  0
 23 56  1  0  0  0
 24 25  1  0  0  0
 24 57  1  0  0  0
 24 58  1  0  0  0
 25 26  2  0  0  0
 25 30  1  0  0  0
 26 27  1  0  0  0
 26 59  1  0  0  0
 27 28  2  0  0  0
 27 60  1  0  0  0
 28 29  1  0  0  0
 28 61  1  0  0  0
 29 30  2  0  0  0
 29 62  1  0  0  0
 30 63  1  0  0  0
 31 32  1  0  0  0
 31 64  1  0  0  0
 32 33  2  0  0  0
 32 34  1  0  0  0
 34 35  2  0  0  0
 34 39  1  0  0  0
 35 36  1  0  0  0
 35 65  1  0  0  0
 36 37  2  0  0  0
 36 66  1  0  0  0
 37 38  1  0  0  0
 37 67  1  0  0  0
 38 39  2  0  0  0
 38 68  1  0  0  0
 39 69  1  0  0  0
M  CHG  1  14  -1
M  END
> <i_epik_Tot_Q>
-1

> <i_epik_Tot_abs_Q>
1

> <i_f3d_flags>
0

> <i_i_glide_confnum>
455

> <i_i_glide_lignum>
1

> <i_i_glide_posenum>
149

> <i_i_glide_rotatable_bonds>
16

> <i_lp_mmshare_version>
65135

> <i_m_Source_File_Index>
1

> <i_m_source_file_index>
1

> <i_m_stars>
0

> <b_lp_Chiralities_Consistent>
1

> <b_m_subgroup_collapsed>
0

> <r_epik_Charging_Adjusted_Penalty>
0.000113601

> <r_epik_Ionization_Penalty>
0.0001

> <r_epik_Ionization_Penalty_Charging>
0.0001

> <r_epik_Ionization_Penalty_Neutral>
0

> <r_epik_State_Penalty>
0

> <r_i_docking_score>
-11.05

> <r_i_glide_ecoul>
-32.7241

> <r_i_glide_eff_state_penalty>
0

> <r_i_glide_einternal>
13.5185

> <r_i_glide_emodel>
-174.572

> <r_i_glide_energy>
-90.0113

> <r_i_glide_erotb>
0.737397

> <r_i_glide_esite>
-0.255007

> <r_i_glide_evdw>
-57.2872

> <r_i_glide_gscore>
-11.05

> <r_i_glide_hbond>
-0.872556

> <r_i_glide_ligand_efficiency>
-0.283332

> <r_i_glide_ligand_efficiency_ln>
-2.36942

> <r_i_glide_ligand_efficiency_sa>
-0.960839

> <r_i_glide_lipo>
-3.6755

> <r_i_glide_metal>
0

> <r_i_glide_rewards>
-0.119926

> <r_lp_Energy>
37.4878

> <r_lp_tautomer_probability>
1

> <s_epik_cmdline>
J2VwaWtfcHl0aG9uJywgJy1waCcsICc3LjAnLCAnLXRuJywgJzgnLCAnLW1hJywgJzUwMCcsICctaW1hZScsICc8aW5maWxlLm1hZT4nLCAnLW9tYWUnLCAnPG91dGZpbGUubWFlPic=

> <s_epik_input>
W2NIXTFbY0hdW2NIXVtjSF1jKGMxMilbbkhdW2NIXWMyW0NIMl1bQ0BASF0oQyg9TylbT0hdKVtOSF1DKD1PKVtDSDJdW0NIMl1DKFtPSF0pKFtPSF0pW0NASF0oW0NIMl1jM1tjSF1bY0hdW2NIXVtjSF1bY0hdMylbTkhdQyg9TyljNFtjSF1bY0hdW2NIXVtjSF1bY0hdNA==

> <s_i_glide_gridfile>
glide-grid_P12821_MT_D453E

> <s_lp_Force_Field>
S-OPLS

> <s_lp_Variant>
KAW-1

> <s_m_Source_File>
glide-dock_SP_P12821_MT_D453E_pv.maegz

> <s_m_Source_Path>
D:\project\glide-dock_SP_P12821_MT_D453E

> <s_m_entry_id>
1016

> <s_m_entry_name>
Structure999

> <s_m_job_name>
glide-dock_SP_P12821_MT_D453E

> <s_m_source_file>
ligprep_KAW.maegz

> <s_m_subgroup_title>
glide-dock_SP_P12821_MT_D453E_pv

> <s_m_subgroupid>
glide-dock_SP_P12821_MT_D453E_pv

> <s_pdb_PDB_TITLE>
WT_3BKL_complex

> <s_pdb_PDB_format_version>
3.0

$$$$
