KAW
                    3D
 Schrodinger Suite 2024-1.
 69 72  0  0  1  0            999 V2000
   44.4009   48.0438   39.0279 C   0  0  0  0  0  0
   44.9427   49.2523   38.5284 C   0  0  0  0  0  0
   44.1242   50.2222   37.9122 C   0  0  0  0  0  0
   42.7381   50.0066   37.7808 C   0  0  0  0  0  0
   42.1658   48.8142   38.2608 C   0  0  0  0  0  0
   42.9918   47.8529   38.8705 C   0  0  0  0  0  0
   42.7476   46.6133   39.4265 N   0  0  0  0  0  0
   43.9034   46.0421   39.9155 C   0  0  0  0  0  0
   44.9508   46.8761   39.7137 C   0  0  0  0  0  0
   46.3647   46.5937   40.1500 C   0  0  0  0  0  0
   46.8614   47.2125   41.4866 C   0  0  1  0  0  0
   47.7258   48.4616   41.2123 C   0  0  0  0  0  0
   47.1812   49.5810   41.1070 O   0  0  0  0  0  0
   48.9612   48.2815   41.1069 O   0  5  0  0  0  0
   45.7076   47.5031   42.3512 N   0  0  0  0  0  0
   45.6774   47.3902   43.6852 C   0  0  0  0  0  0
   46.6686   47.0814   44.3443 O   0  0  0  0  0  0
   44.3310   47.6252   44.3899 C   0  0  0  0  0  0
   44.3750   47.3640   45.9194 C   0  0  0  0  0  0
   44.3158   45.8814   46.3977 C   0  0  0  0  0  0
   44.9611   45.0104   45.5069 O   0  0  0  0  0  0
   42.9611   45.4814   46.4608 O   0  0  0  0  0  0
   45.0008   45.6520   47.7756 C   0  0  2  0  0  0
   46.5385   45.8891   47.7712 C   0  0  0  0  0  0
   47.1879   45.7148   49.1316 C   0  0  0  0  0  0
   47.6200   44.4436   49.5662 C   0  0  0  0  0  0
   48.1951   44.2902   50.8419 C   0  0  0  0  0  0
   48.3622   45.4104   51.6785 C   0  0  0  0  0  0
   47.9481   46.6827   51.2405 C   0  0  0  0  0  0
   47.3613   46.8338   49.9693 C   0  0  0  0  0  0
   44.7304   44.2785   48.2056 N   0  0  0  0  0  0
   44.1559   43.8906   49.3522 C   0  0  0  0  0  0
   43.7610   44.6813   50.2081 O   0  0  0  0  0  0
   43.9872   42.4033   49.5197 C   0  0  0  0  0  0
   43.1224   41.9065   50.5201 C   0  0  0  0  0  0
   42.9610   40.5200   50.7030 C   0  0  0  0  0  0
   43.6538   39.6112   49.8826 C   0  0  0  0  0  0
   44.5167   40.0917   48.8812 C   0  0  0  0  0  0
   44.6912   41.4783   48.7070 C   0  0  0  0  0  0
   46.0021   49.4353   38.6303 H   0  0  0  0  0  0
   44.5599   51.1380   37.5384 H   0  0  0  0  0  0
   42.1177   50.7567   37.3114 H   0  0  0  0  0  0
   41.1039   48.6424   38.1644 H   0  0  0  0  0  0
   41.8447   46.1581   39.4942 H   0  0  0  0  0  0
   43.9728   45.0831   40.4081 H   0  0  0  0  0  0
   46.4501   45.5109   40.2387 H   0  0  0  0  0  0
   47.0302   46.8524   39.3254 H   0  0  0  0  0  0
   47.5086   46.4794   41.9729 H   0  0  0  0  0  0
   44.8702   47.8139   41.8793 H   0  0  0  0  0  0
   44.0531   48.6660   44.2196 H   0  0  0  0  0  0
   43.5538   47.0214   43.9216 H   0  0  0  0  0  0
   45.2605   47.8624   46.3072 H   0  0  0  0  0  0
   43.5727   47.9189   46.4019 H   0  0  0  0  0  0
   45.8155   45.3775   45.2918 H   0  0  0  0  0  0
   42.4524   46.1738   46.8905 H   0  0  0  0  0  0
   44.5612   46.3539   48.4834 H   0  0  0  0  0  0
   47.0310   45.2055   47.0797 H   0  0  0  0  0  0
   46.7854   46.8893   47.4199 H   0  0  0  0  0  0
   47.4983   43.5806   48.9286 H   0  0  0  0  0  0
   48.5165   43.3152   51.1766 H   0  0  0  0  0  0
   48.8103   45.2958   52.6546 H   0  0  0  0  0  0
   48.0787   47.5433   51.8805 H   0  0  0  0  0  0
   47.0404   47.8126   49.6413 H   0  0  0  0  0  0
   45.0447   43.5543   47.5799 H   0  0  0  0  0  0
   42.5750   42.5901   51.1542 H   0  0  0  0  0  0
   42.2931   40.1578   51.4686 H   0  0  0  0  0  0
   43.5151   38.5485   50.0149 H   0  0  0  0  0  0
   45.0413   39.3983   48.2399 H   0  0  0  0  0  0
   45.3639   41.8080   47.9295 H   0  0  0  0  0  0
  1  2  2  0  0  0
  1  6  1  0  0  0
  1  9  1  0  0  0
  2  3  1  0  0  0
  2 40  1  0  0  0
  3  4  2  0  0  0
  3 41  1  0  0  0
  4  5  1  0  0  0
  4 42  1  0  0  0
  5  6  2  0  0  0
  5 43  1  0  0  0
  6  7  1  0  0  0
  7  8  1  0  0  0
  7 44  1  0  0  0
  8  9  2  0  0  0
  8 45  1  0  0  0
  9 10  1  0  0  0
 10 11  1  0  0  0
 10 46  1  0  0  0
 10 47  1  0  0  0
 11 12  1  0  0  0
 11 15  1  0  0  0
 11 48  1  0  0  0
 12 13  2  0  0  0
 12 14  1  0  0  0
 15 16  1  0  0  0
 15 49  1  0  0  0
 16 17  2  0  0  0
 16 18  1  0  0  0
 18 19  1  0  0  0
 18 50  1  0  0  0
 18 51  1  0  0  0
 19 20  1  0  0  0
 19 52  1  0  0  0
 19 53  1  0  0  0
 20 21  1  0  0  0
 20 22  1  0  0  0
 20 23  1  0  0  0
 21 54  1  0  0  0
 22 55  1  0  0  0
 23 24  1  0  0  0
 23 31  1  0  0  0
 23 56  1  0  0  0
 24 25  1  0  0  0
 24 57  1  0  0  0
 24 58  1  0  0  0
 25 26  2  0  0  0
 25 30  1  0  0  0
 26 27  1  0  0  0
 26 59  1  0  0  0
 27 28  2  0  0  0
 27 60  1  0  0  0
 28 29  1  0  0  0
 28 61  1  0  0  0
 29 30  2  0  0  0
 29 62  1  0  0  0
 30 63  1  0  0  0
 31 32  1  0  0  0
 31 64  1  0  0  0
 32 33  2  0  0  0
 32 34  1  0  0  0
 34 35  2  0  0  0
 34 39  1  0  0  0
 35 36  1  0  0  0
 35 65  1  0  0  0
 36 37  2  0  0  0
 36 66  1  0  0  0
 37 38  1  0  0  0
 37 67  1  0  0  0
 38 39  2  0  0  0
 38 68  1  0  0  0
 39 69  1  0  0  0
M  CHG  1  14  -1
M  END
> <i_epik_Tot_Q>
-1

> <i_epik_Tot_abs_Q>
1

> <i_f3d_flags>
0

> <i_i_glide_confnum>
460

> <i_i_glide_lignum>
1

> <i_i_glide_posenum>
374

> <i_i_glide_rotatable_bonds>
16

> <i_lp_mmshare_version>
65135

> <i_m_Source_File_Index>
1

> <i_m_source_file_index>
1

> <i_m_stars>
0

> <b_lp_Chiralities_Consistent>
1

> <b_m_subgroup_collapsed>
0

> <r_epik_Charging_Adjusted_Penalty>
0.000113601

> <r_epik_Ionization_Penalty>
0.0001

> <r_epik_Ionization_Penalty_Charging>
0.0001

> <r_epik_Ionization_Penalty_Neutral>
0

> <r_epik_State_Penalty>
0

> <r_i_docking_score>
-10.9141

> <r_i_glide_ecoul>
-31.7428

> <r_i_glide_eff_state_penalty>
0

> <r_i_glide_einternal>
15.5171

> <r_i_glide_emodel>
-173.266

> <r_i_glide_energy>
-90.0952

> <r_i_glide_erotb>
0.737397

> <r_i_glide_esite>
-0.238076

> <r_i_glide_evdw>
-58.3524

> <r_i_glide_gscore>
-10.9141

> <r_i_glide_hbond>
-0.865478

> <r_i_glide_ligand_efficiency>
-0.279848

> <r_i_glide_ligand_efficiency_ln>
-2.34029

> <r_i_glide_ligand_efficiency_sa>
-0.949023

> <r_i_glide_lipo>
-3.50605

> <r_i_glide_metal>
0

> <r_i_glide_rewards>
-0.124243

> <r_lp_Energy>
37.4878

> <r_lp_tautomer_probability>
1

> <s_epik_cmdline>
J2VwaWtfcHl0aG9uJywgJy1waCcsICc3LjAnLCAnLXRuJywgJzgnLCAnLW1hJywgJzUwMCcsICctaW1hZScsICc8aW5maWxlLm1hZT4nLCAnLW9tYWUnLCAnPG91dGZpbGUubWFlPic=

> <s_epik_input>
W2NIXTFbY0hdW2NIXVtjSF1jKGMxMilbbkhdW2NIXWMyW0NIMl1bQ0BASF0oQyg9TylbT0hdKVtOSF1DKD1PKVtDSDJdW0NIMl1DKFtPSF0pKFtPSF0pW0NASF0oW0NIMl1jM1tjSF1bY0hdW2NIXVtjSF1bY0hdMylbTkhdQyg9TyljNFtjSF1bY0hdW2NIXVtjSF1bY0hdNA==

> <s_i_glide_gridfile>
glide-grid_P12821_MT_E403R

> <s_lp_Force_Field>
S-OPLS

> <s_lp_Variant>
KAW-1

> <s_m_Source_File>
glide-dock_SP_P12821_MT_E403R_pv.maegz

> <s_m_Source_Path>
D:\project\glide-dock_SP_P12821_MT_E403R

> <s_m_entry_id>
1053

> <s_m_entry_name>
Structure999

> <s_m_job_name>
glide-dock_SP_P12821_MT_E403R

> <s_m_source_file>
ligprep_KAW.maegz

> <s_m_subgroup_title>
glide-dock_SP_P12821_MT_E403R_pv

> <s_m_subgroupid>
glide-dock_SP_P12821_MT_E403R_pv

> <s_pdb_PDB_TITLE>
WT_3BKL_complex

> <s_pdb_PDB_format_version>
3.0

$$$$
