KAW
                    3D
 Schrodinger Suite 2024-1.
 69 72  0  0  1  0            999 V2000
   44.0035   47.2316   39.1730 C   0  0  0  0  0  0
   43.1506   46.2401   39.7150 C   0  0  0  0  0  0
   41.7686   46.2402   39.4419 C   0  0  0  0  0  0
   41.1954   47.2448   38.6365 C   0  0  0  0  0  0
   42.0125   48.2469   38.0824 C   0  0  0  0  0  0
   43.3961   48.2270   38.3448 C   0  0  0  0  0  0
   44.4471   49.0278   37.9481 N   0  0  0  0  0  0
   45.6485   48.5789   38.4554 C   0  0  0  0  0  0
   45.4404   47.4948   39.2382 C   0  0  0  0  0  0
   46.5031   46.7207   39.9705 C   0  0  0  0  0  0
   46.9893   47.2437   41.3454 C   0  0  1  0  0  0
   47.7129   48.5902   41.1570 C   0  0  0  0  0  0
   47.0536   49.6499   41.1032 O   0  0  0  0  0  0
   48.9543   48.5425   41.0414 O   0  5  0  0  0  0
   45.8461   47.3569   42.2510 N   0  0  0  0  0  0
   45.8779   47.2627   43.5875 C   0  0  0  0  0  0
   46.9191   47.0672   44.2285 O   0  0  0  0  0  0
   44.5114   47.4148   44.2781 C   0  0  0  0  0  0
   44.5177   47.2056   45.8096 C   0  0  0  0  0  0
   44.3280   45.7373   46.3015 C   0  0  0  0  0  0
   44.9433   44.8121   45.4400 O   0  0  0  0  0  0
   42.9366   45.5015   46.3093 O   0  0  0  0  0  0
   44.9599   45.4895   47.6990 C   0  0  2  0  0  0
   46.5098   45.6564   47.7157 C   0  0  0  0  0  0
   47.1333   45.5487   49.0972 C   0  0  0  0  0  0
   47.3357   46.7137   49.8639 C   0  0  0  0  0  0
   47.9255   46.6273   51.1403 C   0  0  0  0  0  0
   48.3091   45.3746   51.6561 C   0  0  0  0  0  0
   48.1089   44.2077   50.8933 C   0  0  0  0  0  0
   47.5303   44.2956   49.6116 C   0  0  0  0  0  0
   44.6438   44.1247   48.1057 N   0  0  0  0  0  0
   44.1132   43.7104   49.2605 C   0  0  0  0  0  0
   43.7266   44.4690   50.1518 O   0  0  0  0  0  0
   43.9891   42.2166   49.3640 C   0  0  0  0  0  0
   42.9944   41.6426   50.1830 C   0  0  0  0  0  0
   42.8658   40.2425   50.2668 C   0  0  0  0  0  0
   43.7365   39.4028   49.5486 C   0  0  0  0  0  0
   44.7308   39.9634   48.7303 C   0  0  0  0  0  0
   44.8642   41.3608   48.6454 C   0  0  0  0  0  0
   43.5695   45.4617   40.3378 H   0  0  0  0  0  0
   41.1403   45.4551   39.8451 H   0  0  0  0  0  0
   40.1330   47.2366   38.4416 H   0  0  0  0  0  0
   41.5832   49.0173   37.4606 H   0  0  0  0  0  0
   44.3749   49.8509   37.3658 H   0  0  0  0  0  0
   46.6180   49.0208   38.2831 H   0  0  0  0  0  0
   46.1489   45.6978   40.0822 H   0  0  0  0  0  0
   47.3621   46.6478   39.3075 H   0  0  0  0  0  0
   47.7016   46.5218   41.7522 H   0  0  0  0  0  0
   44.9570   47.5710   41.8189 H   0  0  0  0  0  0
   44.1642   48.4274   44.0674 H   0  0  0  0  0  0
   43.7847   46.7416   43.8149 H   0  0  0  0  0  0
   45.4221   47.6594   46.2031 H   0  0  0  0  0  0
   43.7321   47.8249   46.2516 H   0  0  0  0  0  0
   44.5375   43.9590   45.5488 H   0  0  0  0  0  0
   42.4936   46.1793   46.8159 H   0  0  0  0  0  0
   44.5297   46.2045   48.4021 H   0  0  0  0  0  0
   46.9825   44.9159   47.0652 H   0  0  0  0  0  0
   46.8191   46.6215   47.3174 H   0  0  0  0  0  0
   47.0398   47.6800   49.4785 H   0  0  0  0  0  0
   48.0821   47.5221   51.7244 H   0  0  0  0  0  0
   48.7623   45.3062   52.6359 H   0  0  0  0  0  0
   48.4054   43.2490   51.2912 H   0  0  0  0  0  0
   47.3834   43.3990   49.0286 H   0  0  0  0  0  0
   44.8852   43.4016   47.4440 H   0  0  0  0  0  0
   42.3195   42.2716   50.7452 H   0  0  0  0  0  0
   42.0973   39.8106   50.8912 H   0  0  0  0  0  0
   43.6328   38.3306   49.6230 H   0  0  0  0  0  0
   45.3874   39.3212   48.1621 H   0  0  0  0  0  0
   45.6390   41.7557   48.0063 H   0  0  0  0  0  0
  1  2  2  0  0  0
  1  6  1  0  0  0
  1  9  1  0  0  0
  2  3  1  0  0  0
  2 40  1  0  0  0
  3  4  2  0  0  0
  3 41  1  0  0  0
  4  5  1  0  0  0
  4 42  1  0  0  0
  5  6  2  0  0  0
  5 43  1  0  0  0
  6  7  1  0  0  0
  7  8  1  0  0  0
  7 44  1  0  0  0
  8  9  2  0  0  0
  8 45  1  0  0  0
  9 10  1  0  0  0
 10 11  1  0  0  0
 10 46  1  0  0  0
 10 47  1  0  0  0
 11 12  1  0  0  0
 11 15  1  0  0  0
 11 48  1  0  0  0
 12 13  2  0  0  0
 12 14  1  0  0  0
 15 16  1  0  0  0
 15 49  1  0  0  0
 16 17  2  0  0  0
 16 18  1  0  0  0
 18 19  1  0  0  0
 18 50  1  0  0  0
 18 51  1  0  0  0
 19 20  1  0  0  0
 19 52  1  0  0  0
 19 53  1  0  0  0
 20 21  1  0  0  0
 20 22  1  0  0  0
 20 23  1  0  0  0
 21 54  1  0  0  0
 22 55  1  0  0  0
 23 24  1  0  0  0
 23 31  1  0  0  0
 23 56  1  0  0  0
 24 25  1  0  0  0
 24 57  1  0  0  0
 24 58  1  0  0  0
 25 26  2  0  0  0
 25 30  1  0  0  0
 26 27  1  0  0  0
 26 59  1  0  0  0
 27 28  2  0  0  0
 27 60  1  0  0  0
 28 29  1  0  0  0
 28 61  1  0  0  0
 29 30  2  0  0  0
 29 62  1  0  0  0
 30 63  1  0  0  0
 31 32  1  0  0  0
 31 64  1  0  0  0
 32 33  2  0  0  0
 32 34  1  0  0  0
 34 35  2  0  0  0
 34 39  1  0  0  0
 35 36  1  0  0  0
 35 65  1  0  0  0
 36 37  2  0  0  0
 36 66  1  0  0  0
 37 38  1  0  0  0
 37 67  1  0  0  0
 38 39  2  0  0  0
 38 68  1  0  0  0
 39 69  1  0  0  0
M  CHG  1  14  -1
M  END
> <i_epik_Tot_Q>
-1

> <i_epik_Tot_abs_Q>
1

> <i_f3d_flags>
0

> <i_i_glide_confnum>
462

> <i_i_glide_lignum>
1

> <i_i_glide_posenum>
151

> <i_i_glide_rotatable_bonds>
16

> <i_lp_mmshare_version>
65135

> <i_m_Source_File_Index>
1

> <i_m_source_file_index>
1

> <i_m_stars>
0

> <b_lp_Chiralities_Consistent>
1

> <b_m_subgroup_collapsed>
0

> <r_epik_Charging_Adjusted_Penalty>
0.000113601

> <r_epik_Ionization_Penalty>
0.0001

> <r_epik_Ionization_Penalty_Charging>
0.0001

> <r_epik_Ionization_Penalty_Neutral>
0

> <r_epik_State_Penalty>
0

> <r_i_docking_score>
-12.4982

> <r_i_glide_ecoul>
-26.8497

> <r_i_glide_eff_state_penalty>
0

> <r_i_glide_einternal>
14.4158

> <r_i_glide_emodel>
-164.534

> <r_i_glide_energy>
-87.3052

> <r_i_glide_erotb>
0.516178

> <r_i_glide_esite>
-0.134037

> <r_i_glide_evdw>
-60.4555

> <r_i_glide_gscore>
-12.4982

> <r_i_glide_hbond>
-1.04253

> <r_i_glide_ligand_efficiency>
-0.320466

> <r_i_glide_ligand_efficiency_ln>
-2.67996

> <r_i_glide_ligand_efficiency_sa>
-1.08677

> <r_i_glide_lipo>
-3.73003

> <r_i_glide_metal>
0

> <r_i_glide_rewards>
-1.08498

> <r_lp_Energy>
37.4878

> <r_lp_tautomer_probability>
1

> <s_epik_cmdline>
J2VwaWtfcHl0aG9uJywgJy1waCcsICc3LjAnLCAnLXRuJywgJzgnLCAnLW1hJywgJzUwMCcsICctaW1hZScsICc8aW5maWxlLm1hZT4nLCAnLW9tYWUnLCAnPG91dGZpbGUubWFlPic=

> <s_epik_input>
W2NIXTFbY0hdW2NIXVtjSF1jKGMxMilbbkhdW2NIXWMyW0NIMl1bQ0BASF0oQyg9TylbT0hdKVtOSF1DKD1PKVtDSDJdW0NIMl1DKFtPSF0pKFtPSF0pW0NASF0oW0NIMl1jM1tjSF1bY0hdW2NIXVtjSF1bY0hdMylbTkhdQyg9TyljNFtjSF1bY0hdW2NIXVtjSF1bY0hdNA==

> <s_i_glide_gridfile>
glide-grid_P12821_MT_F391Y

> <s_lp_Force_Field>
S-OPLS

> <s_lp_Variant>
KAW-1

> <s_m_Source_File>
glide-dock_SP_P12821_MT_F391Y_pv.maegz

> <s_m_Source_Path>
D:\project\glide-dock_SP_P12821_MT_F391Y

> <s_m_entry_id>
1072

> <s_m_entry_name>
Structure999

> <s_m_job_name>
glide-dock_SP_P12821_MT_F391Y

> <s_m_source_file>
ligprep_KAW.maegz

> <s_m_subgroup_title>
glide-dock_SP_P12821_MT_F391Y_pv

> <s_m_subgroupid>
glide-dock_SP_P12821_MT_F391Y_pv

> <s_pdb_PDB_TITLE>
WT_3BKL_complex

> <s_pdb_PDB_format_version>
3.0

$$$$
