KAW
                    3D
 Schrodinger Suite 2024-1.
 69 72  0  0  1  0            999 V2000
   44.0035   47.3461   39.2074 C   0  0  0  0  0  0
   43.1098   46.4121   39.7839 C   0  0  0  0  0  0
   41.7321   46.4429   39.4852 C   0  0  0  0  0  0
   41.2074   47.4150   38.6127 C   0  0  0  0  0  0
   42.0650   48.3679   38.0330 C   0  0  0  0  0  0
   43.4402   48.3216   38.3275 C   0  0  0  0  0  0
   44.5197   49.0757   37.9192 N   0  0  0  0  0  0
   45.7005   48.6119   38.4605 C   0  0  0  0  0  0
   45.4476   47.5687   39.2816 C   0  0  0  0  0  0
   46.4788   46.8004   40.0598 C   0  0  0  0  0  0
   46.9779   47.3914   41.4003 C   0  0  1  0  0  0
   47.7483   48.7060   41.1400 C   0  0  0  0  0  0
   48.9317   48.6106   40.7320 O   0  0  0  0  0  0
   47.1876   49.8034   41.3618 O   0  5  0  0  0  0
   45.8177   47.5716   42.2801 N   0  0  0  0  0  0
   45.8206   47.4560   43.6163 C   0  0  0  0  0  0
   46.8439   47.2048   44.2580 O   0  0  0  0  0  0
   44.4730   47.6541   44.3308 C   0  0  0  0  0  0
   44.5022   47.3630   45.8545 C   0  0  0  0  0  0
   44.3198   45.8764   46.2863 C   0  0  0  0  0  0
   44.9318   45.0129   45.3611 O   0  0  0  0  0  0
   42.9327   45.6340   46.3172 O   0  0  0  0  0  0
   44.9444   45.5551   47.6782 C   0  0  2  0  0  0
   46.4947   45.6830   47.7107 C   0  0  0  0  0  0
   47.1205   45.5537   49.0887 C   0  0  0  0  0  0
   47.3317   46.7035   49.8755 C   0  0  0  0  0  0
   47.9324   46.5953   51.1443 C   0  0  0  0  0  0
   48.3280   45.3336   51.6300 C   0  0  0  0  0  0
   48.1243   44.1824   50.8440 C   0  0  0  0  0  0
   47.5251   44.2929   49.5745 C   0  0  0  0  0  0
   44.5718   44.1974   48.0857 N   0  0  0  0  0  0
   44.0681   43.8215   49.2708 C   0  0  0  0  0  0
   43.7339   44.6132   50.1492 O   0  0  0  0  0  0
   43.9211   42.3412   49.4769 C   0  0  0  0  0  0
   43.0580   41.8601   50.4875 C   0  0  0  0  0  0
   42.9319   40.4773   50.7170 C   0  0  0  0  0  0
   43.6653   39.5601   49.9436 C   0  0  0  0  0  0
   44.5283   40.0243   48.9354 C   0  0  0  0  0  0
   44.6636   41.4085   48.7096 C   0  0  0  0  0  0
   43.4901   45.6539   40.4528 H   0  0  0  0  0  0
   41.0649   45.7120   39.9168 H   0  0  0  0  0  0
   40.1494   47.4277   38.3957 H   0  0  0  0  0  0
   41.6745   49.1205   37.3631 H   0  0  0  0  0  0
   44.4774   49.8710   37.3004 H   0  0  0  0  0  0
   46.6880   49.0126   38.2827 H   0  0  0  0  0  0
   46.0798   45.8031   40.2356 H   0  0  0  0  0  0
   47.3333   46.6463   39.4038 H   0  0  0  0  0  0
   47.6703   46.6782   41.8506 H   0  0  0  0  0  0
   44.9587   47.8529   41.8309 H   0  0  0  0  0  0
   44.1813   48.6939   44.1798 H   0  0  0  0  0  0
   43.7076   47.0458   43.8475 H   0  0  0  0  0  0
   45.4173   47.7863   46.2615 H   0  0  0  0  0  0
   43.7316   47.9657   46.3361 H   0  0  0  0  0  0
   44.6042   44.1319   45.5032 H   0  0  0  0  0  0
   42.4856   46.3291   46.8019 H   0  0  0  0  0  0
   44.5318   46.2767   48.3828 H   0  0  0  0  0  0
   46.9470   44.9226   47.0758 H   0  0  0  0  0  0
   46.8303   46.6334   47.3020 H   0  0  0  0  0  0
   47.0272   47.6746   49.5093 H   0  0  0  0  0  0
   48.0901   47.4788   51.7457 H   0  0  0  0  0  0
   48.7885   45.2493   52.6032 H   0  0  0  0  0  0
   48.4304   43.2143   51.2136 H   0  0  0  0  0  0
   47.3757   43.4068   48.9752 H   0  0  0  0  0  0
   44.7651   43.4604   47.4249 H   0  0  0  0  0  0
   42.4928   42.5503   51.0972 H   0  0  0  0  0  0
   42.2704   40.1235   51.4911 H   0  0  0  0  0  0
   43.5573   38.4999   50.1200 H   0  0  0  0  0  0
   45.0849   39.3219   48.3332 H   0  0  0  0  0  0
   45.3360   41.7353   47.9308 H   0  0  0  0  0  0
  1  2  2  0  0  0
  1  6  1  0  0  0
  1  9  1  0  0  0
  2  3  1  0  0  0
  2 40  1  0  0  0
  3  4  2  0  0  0
  3 41  1  0  0  0
  4  5  1  0  0  0
  4 42  1  0  0  0
  5  6  2  0  0  0
  5 43  1  0  0  0
  6  7  1  0  0  0
  7  8  1  0  0  0
  7 44  1  0  0  0
  8  9  2  0  0  0
  8 45  1  0  0  0
  9 10  1  0  0  0
 10 11  1  0  0  0
 10 46  1  0  0  0
 10 47  1  0  0  0
 11 12  1  0  0  0
 11 15  1  0  0  0
 11 48  1  0  0  0
 12 13  2  0  0  0
 12 14  1  0  0  0
 15 16  1  0  0  0
 15 49  1  0  0  0
 16 17  2  0  0  0
 16 18  1  0  0  0
 18 19  1  0  0  0
 18 50  1  0  0  0
 18 51  1  0  0  0
 19 20  1  0  0  0
 19 52  1  0  0  0
 19 53  1  0  0  0
 20 21  1  0  0  0
 20 22  1  0  0  0
 20 23  1  0  0  0
 21 54  1  0  0  0
 22 55  1  0  0  0
 23 24  1  0  0  0
 23 31  1  0  0  0
 23 56  1  0  0  0
 24 25  1  0  0  0
 24 57  1  0  0  0
 24 58  1  0  0  0
 25 26  2  0  0  0
 25 30  1  0  0  0
 26 27  1  0  0  0
 26 59  1  0  0  0
 27 28  2  0  0  0
 27 60  1  0  0  0
 28 29  1  0  0  0
 28 61  1  0  0  0
 29 30  2  0  0  0
 29 62  1  0  0  0
 30 63  1  0  0  0
 31 32  1  0  0  0
 31 64  1  0  0  0
 32 33  2  0  0  0
 32 34  1  0  0  0
 34 35  2  0  0  0
 34 39  1  0  0  0
 35 36  1  0  0  0
 35 65  1  0  0  0
 36 37  2  0  0  0
 36 66  1  0  0  0
 37 38  1  0  0  0
 37 67  1  0  0  0
 38 39  2  0  0  0
 38 68  1  0  0  0
 39 69  1  0  0  0
M  CHG  1  14  -1
M  END
> <Tot Q>
-1

> <flags>
0

> <stars>
0

> <subgroup collapsed>
0

> <Ionization Penalty>
0.0001

> <State Penalty>
0

> <docking score>
-12.3528

> <glide emodel>
-163.911

> <glide gscore>
-12.3528

> <tautomer probability>
1

> <entry id>
745

> <subgroup title>
glide-dock_SP_P12821_WT_pv

> <subgroupid>
glide-dock_SP_P12821_WT_pv

> <PDB TITLE>
WT_3BKL_complex

$$$$
