Bace_CAT-17d
                    3D
 Schrodinger Suite 2024-1.
 41 44  0  0  1  0            999 V2000
   22.8625   11.6293   24.9926 C   0  0  0  0  0  0
   22.6599   11.1869   23.6150 N   0  0  0  0  0  0
   22.5190   11.9312   22.5219 C   0  0  0  0  0  0
   22.5050   13.1620   22.4642 O   0  0  0  0  0  0
   22.3667   11.0062   21.2997 C   0  0  2  0  0  0
   23.5539   11.1790   20.3244 C   0  0  0  0  0  0
   23.3570   11.4886   18.9572 C   0  0  0  0  0  0
   24.4562   11.6673   18.0977 C   0  0  0  0  0  0
   25.7678   11.5460   18.5897 C   0  0  0  0  0  0
   26.0026   11.2237   19.9424 C   0  0  0  0  0  0
   27.3739   11.1229   20.4808 C   0  0  0  0  0  0
   28.3400   12.1182   20.2206 C   0  0  0  0  0  0
   29.6171   12.0183   20.8043 C   0  0  0  0  0  0
   29.8861   10.9169   21.6363 C   0  0  0  0  0  0
   28.9921    9.9392   21.8776 N   0  0  0  0  0  0
   27.7727   10.0490   21.3084 C   0  0  0  0  0  0
   24.8856   11.0307   20.7858 C   0  0  0  0  0  0
   20.9952   11.2410   20.6435 C   0  0  0  0  0  0
   20.2335   10.1318   19.9442 C   0  0  0  0  0  0
   19.6975   10.7145   21.2275 C   0  0  0  0  0  0
   22.4258    9.7032   21.9673 N   0  0  0  0  0  0
   22.5777    9.8680   23.2366 C   0  0  0  0  0  0
   22.6441    8.9021   24.2206 N   0  0  0  0  0  0
   23.0371   12.7034   25.0527 H   0  0  0  0  0  0
   21.9919   11.3907   25.6030 H   0  0  0  0  0  0
   23.7290   11.1282   25.4205 H   0  0  0  0  0  0
   22.3689   11.5966   18.5389 H   0  0  0  0  0  0
   24.2924   11.9037   17.0562 H   0  0  0  0  0  0
   26.5923   11.6977   17.9112 H   0  0  0  0  0  0
   28.1002   12.9649   19.5940 H   0  0  0  0  0  0
   30.3726   12.7705   20.6295 H   0  0  0  0  0  0
   30.8545   10.8083   22.1029 H   0  0  0  0  0  0
   27.0802    9.2514   21.5339 H   0  0  0  0  0  0
   25.0570   10.7855   21.8206 H   0  0  0  0  0  0
   20.9060   12.2308   20.1978 H   0  0  0  0  0  0
   19.7182   10.3853   19.0206 H   0  0  0  0  0  0
   20.6428    9.1233   19.9839 H   0  0  0  0  0  0
   19.7397   10.0857   22.1142 H   0  0  0  0  0  0
   18.8228   11.3574   21.1595 H   0  0  0  0  0  0
   22.5947    7.8984   23.9751 H   0  0  0  0  0  0
   22.8898    9.0535   25.1915 H   0  0  0  0  0  0
  1 24  1  0  0  0
  1 25  1  0  0  0
  1 26  1  0  0  0
  1  2  1  0  0  0
  2  3  1  0  0  0
  2 22  1  0  0  0
  3  4  2  0  0  0
  3  5  1  0  0  0
  5 21  1  0  0  0
  5  6  1  0  0  0
  5 18  1  0  0  0
  6 17  1  0  0  0
  6  7  2  0  0  0
  7  8  1  0  0  0
  7 27  1  0  0  0
  8  9  2  0  0  0
  8 28  1  0  0  0
  9 10  1  0  0  0
  9 29  1  0  0  0
 10 11  1  0  0  0
 10 17  2  0  0  0
 11 16  1  0  0  0
 11 12  2  0  0  0
 12 13  1  0  0  0
 12 30  1  0  0  0
 13 14  2  0  0  0
 13 31  1  0  0  0
 14 15  1  0  0  0
 14 32  1  0  0  0
 15 16  2  0  0  0
 16 33  1  0  0  0
 17 34  1  0  0  0
 18 20  1  0  0  0
 18 19  1  0  0  0
 18 35  1  0  0  0
 19 20  1  0  0  0
 19 36  1  0  0  0
 19 37  1  0  0  0
 20 38  1  0  0  0
 20 39  1  0  0  0
 21 22  2  0  0  0
 22 23  1  0  0  0
 23 40  1  0  0  0
 23 41  1  0  0  0
M  END
> <Tot Q>
0

> <flags>
0

> <Source File Index>
19

> <subgroup collapsed>
0

> <Ionization Penalty>
1.9216

> <State Penalty>
0

> <docking score>
-5.70167

> <glide emodel>
-52.6647

> <glide gscore>
-5.70167

> <tautomer probability>
1

> <Source File>
glide-dock_SP_2_pv.maegz

> <Source Path>
C:\Users\yujie\Desktop\FEPs\bace\docking\glide-dock_SP_2

> <entry id>
4446

> <job name>
glide-dock_SP_2

> <subgroup title>
glide-dock_SP_2_pv

> <subgroupid>
glide-dock_SP_2_pv

$$$$
