Bace_CAT-24
                    3D
 Schrodinger Suite 2020-3.
 47 50  0  0  1  0            999 V2000
   31.5654   15.5942   19.5313 C   0  0  0  0  0  0
   30.7435   14.4373   19.9101 C   0  0  0  0  0  0
   30.0830   13.4583   20.2206 C   0  0  0  0  0  0
   29.2798   12.2959   20.5652 C   0  0  0  0  0  0
   29.7722   11.3021   21.4139 C   0  0  0  0  0  0
   29.0475   10.2081   21.7612 N   0  0  0  0  0  0
   27.7921   10.0945   21.2558 C   0  0  0  0  0  0
   27.2088   11.0389   20.3996 C   0  0  0  0  0  0
   25.8125   10.9022   19.9018 C   0  0  0  0  0  0
   25.5072   11.1152   18.5550 C   0  0  0  0  0  0
   24.1920   11.0415   18.1033 C   0  0  0  0  0  0
   23.1570   10.7885   19.0023 C   0  0  0  0  0  0
   23.4199   10.5921   20.3650 C   0  0  0  0  0  0
   22.2709   10.4391   21.3928 C   0  0  1  0  0  0
   20.8167   10.3414   20.8137 C   0  0  0  0  0  0
   20.1962    9.0425   20.3491 C   0  0  0  0  0  0
   19.6607    9.7419   21.5888 C   0  0  0  0  0  0
   22.5091    9.3372   22.3331 N   0  3  0  0  0  0
   22.7181    9.7352   23.5863 C   0  0  0  0  0  0
   22.8432    8.9021   24.6098 N   0  0  0  0  0  0
   22.6034   11.0601   23.6711 N   0  0  0  0  0  0
   22.9323   11.8803   24.8442 C   0  0  0  0  0  0
   22.2860   11.6302   22.3625 C   0  0  0  0  0  0
   22.1027   12.8220   22.1077 O   0  0  0  0  0  0
   24.7621   10.6160   20.7813 C   0  0  0  0  0  0
   27.9869   12.1520   20.0549 C   0  0  0  0  0  0
   32.6157   15.3025   19.5111 H   0  0  0  0  0  0
   31.4298   16.3964   20.2565 H   0  0  0  0  0  0
   31.2714   15.9474   18.5431 H   0  0  0  0  0  0
   30.7671   11.3703   21.8313 H   0  0  0  0  0  0
   27.2404    9.2179   21.5635 H   0  0  0  0  0  0
   26.2927   11.3384   17.8472 H   0  0  0  0  0  0
   23.9725   11.2042   17.0574 H   0  0  0  0  0  0
   22.1486   10.7733   18.6206 H   0  0  0  0  0  0
   20.5762   11.2252   20.2181 H   0  0  0  0  0  0
   19.6049    9.0550   19.4336 H   0  0  0  0  0  0
   20.7420    8.1072   20.4577 H   0  0  0  0  0  0
   19.8450    9.3065   22.5717 H   0  0  0  0  0  0
   18.6930   10.2421   21.5406 H   0  0  0  0  0  0
   22.8675    7.8995   24.3930 H   0  0  0  0  0  0
   22.2744    8.3706   22.0959 H   0  0  0  0  0  0
   24.0105   12.0462   24.8583 H   0  0  0  0  0  0
   22.4086   12.8353   24.7873 H   0  0  0  0  0  0
   22.6297   11.3506   25.7481 H   0  0  0  0  0  0
   24.9921   10.4710   21.8206 H   0  0  0  0  0  0
   27.5767   12.9133   19.4057 H   0  0  0  0  0  0
   22.9921    9.1978   25.5716 H   0  0  0  0  0  0
  1  2  1  0  0  0
  1 27  1  0  0  0
  1 28  1  0  0  0
  1 29  1  0  0  0
  2  3  3  0  0  0
  3  4  1  0  0  0
  4 26  1  0  0  0
  4  5  2  0  0  0
  5  6  1  0  0  0
  5 30  1  0  0  0
  6  7  2  0  0  0
  7  8  1  0  0  0
  7 31  1  0  0  0
  8  9  1  0  0  0
  8 26  2  0  0  0
  9 25  1  0  0  0
  9 10  2  0  0  0
 10 11  1  0  0  0
 10 32  1  0  0  0
 11 12  2  0  0  0
 11 33  1  0  0  0
 12 13  1  0  0  0
 12 34  1  0  0  0
 13 25  2  0  0  0
 13 14  1  0  0  0
 14 18  1  0  0  0
 14 23  1  0  0  0
 14 15  1  0  0  0
 15 17  1  0  0  0
 15 16  1  0  0  0
 15 35  1  0  0  0
 16 17  1  0  0  0
 16 36  1  0  0  0
 16 37  1  0  0  0
 17 38  1  0  0  0
 17 39  1  0  0  0
 18 19  2  0  0  0
 18 41  1  0  0  0
 19 21  1  0  0  0
 19 20  1  0  0  0
 20 40  1  0  0  0
 20 47  1  0  0  0
 21 23  1  0  0  0
 21 22  1  0  0  0
 22 42  1  0  0  0
 22 43  1  0  0  0
 22 44  1  0  0  0
 23 24  2  0  0  0
 25 45  1  0  0  0
 26 46  1  0  0  0
M  CHG  1  18   1
M  END
> <s_m_source_file>
/home/user-home/yujie/0_PBCNetv2/data/FEP/Bace/inp_ligprep.csv

> <i_m_source_file_index>
32

> <i_lp_mmshare_version>
51139

> <i_f3d_flags>
0

> <s_epik_input>
W0NIM11DI0NjMVtjSF1uW2NIXWMoW2NIXTEpLWMyW2NIXVtjSF1bY0hdYyhbY0hdMilbQ0BAXTMoW0NIXTRbQ0gyXVtDSDJdNClOPUMoW05IMl0pTihbQ0gzXSlDMz1P

> <s_epik_cmdline>
J2VwaWtfcHl0aG9uJywgJy1waHQnLCAnMi4wJywgJy1waCcsICc3LjQnLCAnLXRuJywgJzgnLCAnLW1hJywgJzIwMCcsICctaW1hZScsICc8aW5maWxlLm1hZT4nLCAnLW9tYWUnLCAnPG91dGZpbGUubWFlPic=

> <r_lp_tautomer_probability>
1

> <r_epik_Ionization_Penalty>
  0.4769

> <r_epik_Ionization_Penalty_Charging>
  0.4762

> <r_epik_Ionization_Penalty_Neutral>
  0.0006

> <r_epik_State_Penalty>
  0.0111

> <r_epik_Charging_Adjusted_Penalty>
0.48735

> <i_epik_Tot_Q>
1

> <i_epik_Tot_abs_Q>
1

> <s_epik_Chemistry_Notes>
This compound has an imine and may undergo hydrolysis.

> <s_lp_Force_Field>
OPLS3e

> <r_lp_Energy>
25.1755

> <b_lp_Chiralities_Consistent>
1

> <s_lp_Variant>
Bace_CAT-24-1

> <s_i_glide_gridfile>
Bace-001-gridgen

> <i_i_glide_lignum>
42

> <i_i_glide_rotatable_bonds>
4

> <r_i_docking_score>
-6.02116749137562

> <r_i_glide_ligand_efficiency>
-0.231583365052908

> <r_i_glide_ligand_efficiency_sa>
-0.686064807732701

> <r_i_glide_ligand_efficiency_ln>
-1.41405142828757

> <r_i_glide_gscore>
-6.03228499137562

> <r_i_glide_lipo>
-1.74688027505352

> <r_i_glide_hbond>
-0.57768882512821

> <r_i_glide_metal>
-0

> <r_i_glide_rewards>
-1.3956373030303

> <r_i_glide_evdw>
-30.6102695465088

> <r_i_glide_ecoul>
-7.88220643997192

> <r_i_glide_erotb>
0.636962919107735

> <r_i_glide_esite>
-0.236197063950088

> <r_i_glide_emodel>
-61.2392826006618

> <r_i_glide_energy>
-38.4924759864807

> <r_i_glide_einternal>
2.2950291633606

> <i_i_glide_confnum>
4

> <i_i_glide_posenum>
305

> <r_i_glide_eff_state_penalty>
0.0111175

$$$$
