Bace_CAT-4c
                    3D
 Schrodinger Suite 2020-3.
 50 53  0  0  1  0            999 V2000
   30.6223   14.3840   22.0238 C   0  0  0  0  0  0
   30.4790   13.1690   21.2973 O   0  0  0  0  0  0
   29.2189   12.6854   21.0223 C   0  0  0  0  0  0
   29.1514   11.5431   20.2272 C   0  0  0  0  0  0
   27.9205   11.0024   19.8688 C   0  0  0  0  0  0
   26.7328   11.5977   20.3071 C   0  0  0  0  0  0
   25.4081   11.0600   19.8965 C   0  0  0  0  0  0
   25.1764   10.6306   18.5886 C   0  0  0  0  0  0
   23.9233   10.1637   18.2011 C   0  0  0  0  0  0
   22.8770   10.1332   19.1206 C   0  0  0  0  0  0
   23.0614   10.5704   20.4390 C   0  0  0  0  0  0
   21.9102   10.4896   21.4754 C   0  0  1  0  0  0
   20.4616   10.3771   20.9073 C   0  0  0  0  0  0
   19.6112   11.4843   20.7160 C   0  0  0  0  0  0
   18.2871   11.3076   20.3228 C   0  0  0  0  0  0
   17.8019   10.0239   20.0908 C   0  0  0  0  0  0
   18.6441    8.9244   20.1900 C   0  0  0  0  0  0
   19.9637    9.1036   20.5888 C   0  0  0  0  0  0
   22.1909    9.4005   22.4067 N   0  3  0  0  0  0
   22.4313    9.7714   23.6500 C   0  0  0  0  0  0
   22.6133    8.9021   24.6205 N   0  0  0  0  0  0
   22.3332   11.0905   23.7674 N   0  0  0  0  0  0
   22.7041   11.8799   24.9492 C   0  0  0  0  0  0
   22.0220   11.6828   22.4683 C   0  0  0  0  0  0
   21.9229   12.8897   22.2359 O   0  0  0  0  0  0
   24.3510   11.0005   20.8081 C   0  0  0  0  0  0
   26.8048   12.7284   21.1291 C   0  0  0  0  0  0
   28.0339   13.2725   21.4829 C   0  0  0  0  0  0
   31.6834   14.6023   22.1433 H   0  0  0  0  0  0
   30.1678   15.2218   21.4944 H   0  0  0  0  0  0
   30.1902   14.3119   23.0222 H   0  0  0  0  0  0
   30.0621   11.0819   19.8768 H   0  0  0  0  0  0
   27.8968   10.1173   19.2493 H   0  0  0  0  0  0
   25.9685   10.6768   17.8560 H   0  0  0  0  0  0
   23.7644    9.8308   17.1849 H   0  0  0  0  0  0
   21.9211    9.7564   18.7952 H   0  0  0  0  0  0
   19.9460   12.4956   20.8880 H   0  0  0  0  0  0
   17.6381   12.1639   20.2113 H   0  0  0  0  0  0
   16.7683    9.8754   19.8210 H   0  0  0  0  0  0
   18.2762    7.9318   19.9742 H   0  0  0  0  0  0
   20.5918    8.2273   20.6732 H   0  0  0  0  0  0
   22.6257    7.9075   24.3636 H   0  0  0  0  0  0
   22.1938    8.4237   22.1046 H   0  0  0  0  0  0
   22.4396   11.3229   25.8491 H   0  0  0  0  0  0
   23.7812   12.0534   24.9278 H   0  0  0  0  0  0
   22.1712   12.8316   24.9380 H   0  0  0  0  0  0
   24.5538   11.2898   21.8293 H   0  0  0  0  0  0
   25.9026   13.2095   21.4793 H   0  0  0  0  0  0
   28.0467   14.1540   22.1046 H   0  0  0  0  0  0
   22.8321    9.1655   25.5782 H   0  0  0  0  0  0
  1  2  1  0  0  0
  1 29  1  0  0  0
  1 30  1  0  0  0
  1 31  1  0  0  0
  2  3  1  0  0  0
  3 28  1  0  0  0
  3  4  2  0  0  0
  4  5  1  0  0  0
  4 32  1  0  0  0
  5  6  2  0  0  0
  5 33  1  0  0  0
  6  7  1  0  0  0
  6 27  1  0  0  0
  7 26  1  0  0  0
  7  8  2  0  0  0
  8  9  1  0  0  0
  8 34  1  0  0  0
  9 10  2  0  0  0
  9 35  1  0  0  0
 10 11  1  0  0  0
 10 36  1  0  0  0
 11 26  2  0  0  0
 11 12  1  0  0  0
 12 19  1  0  0  0
 12 24  1  0  0  0
 12 13  1  0  0  0
 13 18  1  0  0  0
 13 14  2  0  0  0
 14 15  1  0  0  0
 14 37  1  0  0  0
 15 16  2  0  0  0
 15 38  1  0  0  0
 16 17  1  0  0  0
 16 39  1  0  0  0
 17 18  2  0  0  0
 17 40  1  0  0  0
 18 41  1  0  0  0
 19 20  2  0  0  0
 19 43  1  0  0  0
 20 22  1  0  0  0
 20 21  1  0  0  0
 21 42  1  0  0  0
 21 50  1  0  0  0
 22 24  1  0  0  0
 22 23  1  0  0  0
 23 44  1  0  0  0
 23 45  1  0  0  0
 23 46  1  0  0  0
 24 25  2  0  0  0
 26 47  1  0  0  0
 27 28  2  0  0  0
 27 48  1  0  0  0
 28 49  1  0  0  0
M  CHG  1  19   1
M  END
> <s_m_source_file>
/home/user-home/yujie/0_PBCNetv2/data/FEP/Bace/inp_ligprep.csv

> <i_m_source_file_index>
22

> <i_lp_mmshare_version>
51139

> <i_f3d_flags>
0

> <s_epik_input>
W0NIM11PYzFbY0hdW2NIXWMoW2NIXVtjSF0xKS1jMltjSF1bY0hdW2NIXWMoW2NIXTIpW0NAXTMoTj1DKFtOSDJdKU4oW0NIM10pQzM9TyljNFtjSF1bY0hdW2NIXVtjSF1bY0hdNA==

> <s_epik_cmdline>
J2VwaWtfcHl0aG9uJywgJy1waHQnLCAnMi4wJywgJy1waCcsICc3LjQnLCAnLXRuJywgJzgnLCAnLW1hJywgJzIwMCcsICctaW1hZScsICc8aW5maWxlLm1hZT4nLCAnLW9tYWUnLCAnPG91dGZpbGUubWFlPic=

> <r_lp_tautomer_probability>
1

> <r_epik_Ionization_Penalty>
  1.1817

> <r_epik_Ionization_Penalty_Charging>
  1.1817

> <r_epik_Ionization_Penalty_Neutral>
  0.0000

> <r_epik_State_Penalty>
  0.0755

> <r_epik_Charging_Adjusted_Penalty>
1.25715

> <i_epik_Tot_Q>
1

> <i_epik_Tot_abs_Q>
1

> <s_epik_Chemistry_Notes>
This compound has an imine and may undergo hydrolysis.

> <s_lp_Force_Field>
OPLS3e

> <r_lp_Energy>
37.9778

> <b_lp_Chiralities_Consistent>
1

> <s_lp_Variant>
Bace_CAT-4c-1

> <s_i_glide_gridfile>
Bace-001-gridgen

> <i_i_glide_lignum>
26

> <i_i_glide_rotatable_bonds>
4

> <r_i_docking_score>
-5.9839305127345

> <r_i_glide_ligand_efficiency>
-0.213711804026232

> <r_i_glide_ligand_efficiency_sa>
-0.648954906544892

> <r_i_glide_ligand_efficiency_ln>
-1.38126685817344

> <r_i_glide_gscore>
-6.0594249127345

> <r_i_glide_lipo>
-1.82190345814798

> <r_i_glide_hbond>
-0.545625728884469

> <r_i_glide_metal>
-0

> <r_i_glide_rewards>
-1.36376395465565

> <r_i_glide_evdw>
-31.6665840148926

> <r_i_glide_ecoul>
-6.1625771522522

> <r_i_glide_erotb>
0.417719767472812

> <r_i_glide_esite>
-0.238135764936756

> <r_i_glide_emodel>
-59.7010063372592

> <r_i_glide_energy>
-37.8291611671448

> <r_i_glide_einternal>
4.22787618637085

> <i_i_glide_confnum>
48

> <i_i_glide_posenum>
266

> <r_i_glide_eff_state_penalty>
0.0754944

$$$$
