Bace_CAT-4d
                    3D
 Schrodinger Suite 2020-3.
 53 56  0  0  1  0            999 V2000
   28.7859   15.4573   20.8591 C   0  0  0  0  0  0
   29.6343   14.6768   19.8421 C   0  0  0  0  0  0
   30.1219   13.4529   20.3918 O   0  0  0  0  0  0
   29.2743   12.3766   20.5739 C   0  0  0  0  0  0
   29.7884   11.2935   21.2862 C   0  0  0  0  0  0
   29.0086   10.1619   21.5201 C   0  0  0  0  0  0
   27.7022   10.1068   21.0409 C   0  0  0  0  0  0
   27.1557   11.1796   20.3293 C   0  0  0  0  0  0
   25.7388   11.1528   19.8828 C   0  0  0  0  0  0
   25.3843   11.4616   18.5655 C   0  0  0  0  0  0
   24.0462   11.4737   18.1768 C   0  0  0  0  0  0
   23.0429   11.2060   19.1076 C   0  0  0  0  0  0
   23.3617   10.9159   20.4446 C   0  0  0  0  0  0
   22.2614   10.6966   21.5159 C   0  0  1  0  0  0
   20.7993   10.6459   20.9816 C   0  0  0  0  0  0
   20.0000   11.7949   20.8271 C   0  0  0  0  0  0
   18.6839   11.6944   20.3866 C   0  0  0  0  0  0
   18.1533   10.4464   20.0810 C   0  0  0  0  0  0
   18.9385    9.3028   20.1764 C   0  0  0  0  0  0
   20.2546    9.4048   20.6149 C   0  0  0  0  0  0
   22.5492    9.5540   22.3894 N   0  3  0  0  0  0
   22.7021    9.8327   23.6746 C   0  0  0  0  0  0
   22.7494    8.9020   24.6191 N   0  0  0  0  0  0
   22.6460   11.1501   23.8462 N   0  0  0  0  0  0
   22.9894   11.8820   25.0677 C   0  0  0  0  0  0
   22.4384   11.8239   22.5651 C   0  0  0  0  0  0
   22.4129   13.0450   22.3916 O   0  0  0  0  0  0
   24.7221   10.8612   20.7984 C   0  0  0  0  0  0
   27.9563   12.3033   20.0910 C   0  0  0  0  0  0
   28.4372   16.3954   20.4322 H   0  0  0  0  0  0
   29.3696   15.6906   21.7487 H   0  0  0  0  0  0
   27.9087   14.8946   21.1780 H   0  0  0  0  0  0
   29.0933   14.5136   18.9078 H   0  0  0  0  0  0
   30.5042   15.2766   19.5734 H   0  0  0  0  0  0
   30.8013   11.3361   21.6609 H   0  0  0  0  0  0
   29.4168    9.3297   22.0752 H   0  0  0  0  0  0
   27.1044    9.2293   21.2427 H   0  0  0  0  0  0
   26.1478   11.6897   17.8349 H   0  0  0  0  0  0
   23.7859   11.7054   17.1529 H   0  0  0  0  0  0
   22.0160   11.2517   18.7761 H   0  0  0  0  0  0
   20.3791   12.7812   21.0452 H   0  0  0  0  0  0
   18.0762   12.5816   20.2876 H   0  0  0  0  0  0
   17.1260   10.3691   19.7604 H   0  0  0  0  0  0
   18.5330    8.3346   19.9186 H   0  0  0  0  0  0
   20.8469    8.5027   20.6802 H   0  0  0  0  0  0
   22.7229    7.9170   24.3264 H   0  0  0  0  0  0
   22.5899    8.6059   22.0245 H   0  0  0  0  0  0
   24.0401   12.1731   25.0181 H   0  0  0  0  0  0
   22.3589   12.7679   25.1492 H   0  0  0  0  0  0
   22.8285   11.2383   25.9337 H   0  0  0  0  0  0
   24.9970   10.6393   21.8204 H   0  0  0  0  0  0
   27.5255   13.1281   19.5455 H   0  0  0  0  0  0
   22.9052    9.1128   25.6022 H   0  0  0  0  0  0
  1  2  1  0  0  0
  1 30  1  0  0  0
  1 31  1  0  0  0
  1 32  1  0  0  0
  2  3  1  0  0  0
  2 33  1  0  0  0
  2 34  1  0  0  0
  3  4  1  0  0  0
  4 29  1  0  0  0
  4  5  2  0  0  0
  5  6  1  0  0  0
  5 35  1  0  0  0
  6  7  2  0  0  0
  6 36  1  0  0  0
  7  8  1  0  0  0
  7 37  1  0  0  0
  8  9  1  0  0  0
  8 29  2  0  0  0
  9 28  1  0  0  0
  9 10  2  0  0  0
 10 11  1  0  0  0
 10 38  1  0  0  0
 11 12  2  0  0  0
 11 39  1  0  0  0
 12 13  1  0  0  0
 12 40  1  0  0  0
 13 28  2  0  0  0
 13 14  1  0  0  0
 14 21  1  0  0  0
 14 26  1  0  0  0
 14 15  1  0  0  0
 15 20  1  0  0  0
 15 16  2  0  0  0
 16 17  1  0  0  0
 16 41  1  0  0  0
 17 18  2  0  0  0
 17 42  1  0  0  0
 18 19  1  0  0  0
 18 43  1  0  0  0
 19 20  2  0  0  0
 19 44  1  0  0  0
 20 45  1  0  0  0
 21 22  2  0  0  0
 21 47  1  0  0  0
 22 24  1  0  0  0
 22 23  1  0  0  0
 23 46  1  0  0  0
 23 53  1  0  0  0
 24 26  1  0  0  0
 24 25  1  0  0  0
 25 48  1  0  0  0
 25 49  1  0  0  0
 25 50  1  0  0  0
 26 27  2  0  0  0
 28 51  1  0  0  0
 29 52  1  0  0  0
M  CHG  1  21   1
M  END
> <s_m_source_file>
/home/user-home/yujie/0_PBCNetv2/data/FEP/Bace/inp_ligprep.csv

> <i_m_source_file_index>
31

> <i_lp_mmshare_version>
51139

> <i_f3d_flags>
0

> <s_epik_input>
W0NIM11bQ0gyXU9jMVtjSF1bY0hdW2NIXWMoW2NIXTEpLWMyW2NIXVtjSF1bY0hdYyhbY0hdMilbQ0BdMyhOPUMoW05IMl0pTihbQ0gzXSlDMz1PKWM0W2NIXVtjSF1bY0hdW2NIXVtjSF00

> <s_epik_cmdline>
J2VwaWtfcHl0aG9uJywgJy1waHQnLCAnMi4wJywgJy1waCcsICc3LjQnLCAnLXRuJywgJzgnLCAnLW1hJywgJzIwMCcsICctaW1hZScsICc8aW5maWxlLm1hZT4nLCAnLW9tYWUnLCAnPG91dGZpbGUubWFlPic=

> <r_lp_tautomer_probability>
1

> <r_epik_Ionization_Penalty>
  1.1817

> <r_epik_Ionization_Penalty_Charging>
  1.1817

> <r_epik_Ionization_Penalty_Neutral>
  0.0000

> <r_epik_State_Penalty>
  0.0755

> <r_epik_Charging_Adjusted_Penalty>
1.25715

> <i_epik_Tot_Q>
1

> <i_epik_Tot_abs_Q>
1

> <s_epik_Chemistry_Notes>
This compound has an imine and may undergo hydrolysis.

> <s_lp_Force_Field>
OPLS3e

> <r_lp_Energy>
36.7046

> <b_lp_Chiralities_Consistent>
1

> <s_lp_Variant>
Bace_CAT-4d-1

> <s_i_glide_gridfile>
Bace-001-gridgen

> <i_i_glide_lignum>
39

> <i_i_glide_rotatable_bonds>
5

> <r_i_docking_score>
-6.49860924341666

> <r_i_glide_ligand_efficiency>
-0.224089973910919

> <r_i_glide_ligand_efficiency_sa>
-0.688475396541253

> <r_i_glide_ligand_efficiency_ln>
-1.48801672623052

> <r_i_glide_gscore>
-6.57410364341666

> <r_i_glide_lipo>
-2.37352568197421

> <r_i_glide_hbond>
-0.575111714316944

> <r_i_glide_metal>
-0

> <r_i_glide_rewards>
-1.08403721670414

> <r_i_glide_evdw>
-37.5647087097168

> <r_i_glide_ecoul>
-6.31353950500488

> <r_i_glide_erotb>
0.521268842928741

> <r_i_glide_esite>
-0.237431512113533

> <r_i_glide_emodel>
-68.0115541603704

> <r_i_glide_energy>
-43.8782482147217

> <r_i_glide_einternal>
7.83446979522705

> <i_i_glide_confnum>
38

> <i_i_glide_posenum>
327

> <r_i_glide_eff_state_penalty>
0.0754944

$$$$
