Bace_CAT-17g
                    3D
 Schrodinger Suite 2024-1.
 41 44  0  0  1  0            999 V2000
   22.8378   11.6330   24.9960 C   0  0  0  0  0  0
   22.6399   11.1925   23.6192 N   0  0  0  0  0  0
   22.5036   11.9384   22.5274 C   0  0  0  0  0  0
   22.4879   13.1705   22.4739 O   0  0  0  0  0  0
   22.3549   11.0148   21.3023 C   0  0  2  0  0  0
   23.5455   11.1818   20.3290 C   0  0  0  0  0  0
   23.3480   11.4160   18.9471 C   0  0  0  0  0  0
   24.4452   11.5767   18.0823 C   0  0  0  0  0  0
   25.7577   11.5136   18.5835 C   0  0  0  0  0  0
   25.9938   11.2708   19.9532 C   0  0  0  0  0  0
   27.3675   11.2343   20.4928 C   0  0  0  0  0  0
   28.3162   12.2215   20.1439 C   0  0  0  0  0  0
   29.5809   12.2601   20.6124 N   0  0  0  0  0  0
   29.9586   11.3016   21.4823 C   0  0  0  0  0  0
   29.1017   10.2708   21.9102 C   0  0  0  0  0  0
   29.5260    9.3363   22.7933 F   0  0  0  0  0  0
   27.7915   10.2352   21.3984 C   0  0  0  0  0  0
   24.8785   11.0938   20.8019 C   0  0  0  0  0  0
   20.9878   11.2584   20.6382 C   0  0  0  0  0  0
   20.2204   10.1491   19.9462 C   0  0  0  0  0  0
   19.6844   10.7447   21.2235 C   0  0  0  0  0  0
   22.4116    9.7115   21.9684 N   0  0  0  0  0  0
   22.5651    9.8739   23.2375 C   0  0  0  0  0  0
   22.6371    8.9062   24.2205 N   0  0  0  0  0  0
   23.0036   12.7091   25.0581 H   0  0  0  0  0  0
   21.9689   11.3856   25.6078 H   0  0  0  0  0  0
   23.7101   11.1374   25.4191 H   0  0  0  0  0  0
   22.3589   11.4730   18.5206 H   0  0  0  0  0  0
   24.2780   11.7510   17.0288 H   0  0  0  0  0  0
   26.5847   11.6471   17.9007 H   0  0  0  0  0  0
   28.0502   13.0159   19.4628 H   0  0  0  0  0  0
   30.9763   11.3529   21.8398 H   0  0  0  0  0  0
   27.1175    9.4480   21.7038 H   0  0  0  0  0  0
   25.0535   10.9027   21.8467 H   0  0  0  0  0  0
   20.9076   12.2449   20.1865 H   0  0  0  0  0  0
   19.7102   10.4031   19.0189 H   0  0  0  0  0  0
   20.6262    9.1393   19.9912 H   0  0  0  0  0  0
   19.7194   10.1253   22.1175 H   0  0  0  0  0  0
   18.8106   11.3922   21.1445 H   0  0  0  0  0  0
   22.5969    7.9030   23.9775 H   0  0  0  0  0  0
   22.8772    9.0590   25.1910 H   0  0  0  0  0  0
  1 25  1  0  0  0
  1 26  1  0  0  0
  1 27  1  0  0  0
  1  2  1  0  0  0
  2  3  1  0  0  0
  2 23  1  0  0  0
  3  4  2  0  0  0
  3  5  1  0  0  0
  5 22  1  0  0  0
  5  6  1  0  0  0
  5 19  1  0  0  0
  6 18  1  0  0  0
  6  7  2  0  0  0
  7  8  1  0  0  0
  7 28  1  0  0  0
  8  9  2  0  0  0
  8 29  1  0  0  0
  9 10  1  0  0  0
  9 30  1  0  0  0
 10 11  1  0  0  0
 10 18  2  0  0  0
 11 17  1  0  0  0
 11 12  2  0  0  0
 12 13  1  0  0  0
 12 31  1  0  0  0
 13 14  2  0  0  0
 14 15  1  0  0  0
 14 32  1  0  0  0
 15 16  1  0  0  0
 15 17  2  0  0  0
 17 33  1  0  0  0
 18 34  1  0  0  0
 19 21  1  0  0  0
 19 20  1  0  0  0
 19 35  1  0  0  0
 20 21  1  0  0  0
 20 36  1  0  0  0
 20 37  1  0  0  0
 21 38  1  0  0  0
 21 39  1  0  0  0
 22 23  2  0  0  0
 23 24  1  0  0  0
 24 40  1  0  0  0
 24 41  1  0  0  0
M  END
> <Tot Q>
0

> <flags>
0

> <Source File Index>
11

> <subgroup collapsed>
0

> <Ionization Penalty>
1.9171

> <State Penalty>
0

> <docking score>
-6.01437

> <glide emodel>
-53.9639

> <glide gscore>
-6.01437

> <tautomer probability>
1

> <Source File>
glide-dock_SP_2_pv.maegz

> <Source Path>
C:\Users\yujie\Desktop\FEPs\bace\docking\glide-dock_SP_2

> <entry id>
4421

> <job name>
glide-dock_SP_2

> <subgroup title>
glide-dock_SP_2_pv

> <subgroupid>
glide-dock_SP_2_pv

$$$$
