Bace_CAT-17b
                    3D
 Schrodinger Suite 2024-1.
 47 50  0  0  1  0            999 V2000
   29.3921    8.7325   23.1919 C   0  0  0  0  0  0
   30.0116    9.8731   22.6206 O   0  0  0  0  0  0
   29.2987   10.6728   21.7501 C   0  0  0  0  0  0
   29.9767   11.7914   21.2715 C   0  0  0  0  0  0
   29.3687   12.6655   20.3787 C   0  0  0  0  0  0
   28.0682   12.4200   19.9483 C   0  0  0  0  0  0
   27.3521   11.3040   20.4012 C   0  0  0  0  0  0
   25.9610   11.0730   19.9077 C   0  0  0  0  0  0
   25.6553   11.2523   18.5558 C   0  0  0  0  0  0
   24.3530   11.1040   18.0936 C   0  0  0  0  0  0
   23.3274   10.7973   18.9821 C   0  0  0  0  0  0
   23.5745   10.6176   20.3512 C   0  0  0  0  0  0
   22.4429   10.3962   21.4055 C   0  0  1  0  0  0
   20.9525   10.0604   21.0355 C   0  0  0  0  0  0
   20.1610   10.7451   19.9476 C   0  0  0  0  0  0
   20.5475    9.2702   19.8204 C   0  0  0  0  0  0
   22.7971    9.3275   22.3382 N   0  3  0  0  0  0
   22.9104    9.7372   23.5969 C   0  0  0  0  0  0
   22.9807    8.9021   24.6206 N   0  0  0  0  0  0
   22.7269   11.0547   23.6757 N   0  0  0  0  0  0
   22.9926   11.8941   24.8505 C   0  0  0  0  0  0
   22.4026   11.5994   22.3585 C   0  0  0  0  0  0
   22.1551   12.7765   22.0909 O   0  0  0  0  0  0
   24.9153   10.7320   20.7768 C   0  0  0  0  0  0
   27.9786   10.4400   21.3159 C   0  0  0  0  0  0
   30.1151    8.1882   23.8004 H   0  0  0  0  0  0
   28.5921    9.0453   23.8498 H   0  0  0  0  0  0
   28.9921    8.0473   22.4437 H   0  0  0  0  0  0
   30.9883   11.9840   21.5993 H   0  0  0  0  0  0
   29.9081   13.5294   20.0190 H   0  0  0  0  0  0
   27.6131   13.1139   19.2561 H   0  0  0  0  0  0
   26.4307   11.5115   17.8493 H   0  0  0  0  0  0
   24.1359   11.2474   17.0442 H   0  0  0  0  0  0
   22.3476   10.7285   18.5557 H   0  0  0  0  0  0
   20.3642    9.8629   21.9369 H   0  0  0  0  0  0
   19.1213   10.9967   20.1591 H   0  0  0  0  0  0
   20.6355   11.5316   19.3636 H   0  0  0  0  0  0
   21.3234    8.9322   19.1365 H   0  0  0  0  0  0
   19.7806    8.5062   19.9521 H   0  0  0  0  0  0
   22.9921    7.8991   24.4081 H   0  0  0  0  0  0
   22.5920    8.3520   22.1140 H   0  0  0  0  0  0
   22.4185   12.8186   24.7824 H   0  0  0  0  0  0
   22.7065   11.3512   25.7515 H   0  0  0  0  0  0
   24.0595   12.1180   24.8793 H   0  0  0  0  0  0
   25.1452   10.6153   21.8206 H   0  0  0  0  0  0
   27.4315    9.5813   21.6739 H   0  0  0  0  0  0
   23.0394    9.1953   25.5925 H   0  0  0  0  0  0
  1  2  1  0  0  0
  1 26  1  0  0  0
  1 27  1  0  0  0
  1 28  1  0  0  0
  2  3  1  0  0  0
  3 25  1  0  0  0
  3  4  2  0  0  0
  4  5  1  0  0  0
  4 29  1  0  0  0
  5  6  2  0  0  0
  5 30  1  0  0  0
  6  7  1  0  0  0
  6 31  1  0  0  0
  7  8  1  0  0  0
  7 25  2  0  0  0
  8 24  1  0  0  0
  8  9  2  0  0  0
  9 10  1  0  0  0
  9 32  1  0  0  0
 10 11  2  0  0  0
 10 33  1  0  0  0
 11 12  1  0  0  0
 11 34  1  0  0  0
 12 24  2  0  0  0
 12 13  1  0  0  0
 13 17  1  0  0  0
 13 22  1  0  0  0
 13 14  1  0  0  0
 14 16  1  0  0  0
 14 15  1  0  0  0
 14 35  1  0  0  0
 15 16  1  0  0  0
 15 36  1  0  0  0
 15 37  1  0  0  0
 16 38  1  0  0  0
 16 39  1  0  0  0
 17 18  2  0  0  0
 17 41  1  0  0  0
 18 20  1  0  0  0
 18 19  1  0  0  0
 19 40  1  0  0  0
 19 47  1  0  0  0
 20 22  1  0  0  0
 20 21  1  0  0  0
 21 42  1  0  0  0
 21 43  1  0  0  0
 21 44  1  0  0  0
 22 23  2  0  0  0
 24 45  1  0  0  0
 25 46  1  0  0  0
M  CHG  1  17   1
M  END
> <Tot Q>
1

> <Source File Index>
4

> <i_f3d_flags>
0

> <subgroup collapsed>
0

> <Ionization Penalty>
0.4762

> <State Penalty>
0.0111

> <docking score>
-6.88192

> <glide emodel>
-64.8786

> <glide gscore>
-6.89303

> <tautomer probability>
1

> <Source File>
BaceBace_dock_SP_confgen_100_lib.maegz

> <Source Path>
C:\Users\yujie\AppData\Roaming\MobaXterm\slash\tmp\dragdrop

> <entry id>
39

> <subgroup title>
BaceBace_dock_SP_confgen_100_lib

> <subgroupid>
BaceBace_dock_SP_confgen_100_lib

$$$$
