Bace_CAT-4n
                    3D
 Schrodinger Suite 2020-3.
 45 48  0  0  1  0            999 V2000
   22.3347   12.2646   25.5246 C   0  0  0  0  0  0
   22.3187   11.5814   24.2289 N   0  0  0  0  0  0
   22.1720   12.2655   23.0776 C   0  0  0  0  0  0
   22.0734   13.4858   22.9126 O   0  0  0  0  0  0
   22.1451   11.1765   21.9878 C   0  0  1  0  0  0
   20.7207   10.9397   21.3740 C   0  0  0  0  0  0
   20.4098    9.6926   20.8050 C   0  0  0  0  0  0
   19.1622    9.4508   20.2371 C   0  0  0  0  0  0
   18.2057   10.4600   20.2217 C   0  0  0  0  0  0
   18.4957   11.7120   20.7529 C   0  0  0  0  0  0
   19.7448   11.9522   21.3199 C   0  0  0  0  0  0
   23.2137   11.4938   20.8946 C   0  0  0  0  0  0
   22.8343   11.8739   19.5942 C   0  0  0  0  0  0
   23.7848   12.1808   18.6243 C   0  0  0  0  0  0
   25.1389   12.1315   18.9383 C   0  0  0  0  0  0
   25.5629   11.7655   20.2208 C   0  0  0  0  0  0
   27.0128   11.7637   20.5591 C   0  0  0  0  0  0
   27.6185   10.6970   21.2369 C   0  0  0  0  0  0
   28.9338   10.6710   21.5785 N   0  0  0  0  0  0
   29.6953   11.7457   21.2506 C   0  0  0  0  0  0
   29.1818   12.8571   20.5773 C   0  0  0  0  0  0
   30.0204   14.0028   20.2599 C   0  0  0  0  0  0
   30.6829   14.9167   20.0053 N   0  0  0  0  0  0
   27.8299   12.8514   20.2215 C   0  0  0  0  0  0
   24.5912   11.4390   21.1796 C   0  0  0  0  0  0
   22.5146    9.9866   22.7221 N   0  0  0  0  0  0
   22.4590   10.2628   23.9571 C   0  0  0  0  0  0
   22.4582    9.3031   24.9979 N   0  0  0  0  0  0
   22.3518   11.5555   26.3541 H   0  0  0  0  0  0
   23.2207   12.8960   25.6081 H   0  0  0  0  0  0
   21.4513   12.8938   25.6404 H   0  0  0  0  0  0
   21.1438    8.8977   20.8130 H   0  0  0  0  0  0
   18.9406    8.4787   19.8224 H   0  0  0  0  0  0
   17.2306   10.2733   19.7982 H   0  0  0  0  0  0
   17.7551   12.4976   20.7258 H   0  0  0  0  0  0
   19.9397   12.9402   21.7072 H   0  0  0  0  0  0
   21.7950   11.9438   19.3120 H   0  0  0  0  0  0
   23.4709   12.4663   17.6305 H   0  0  0  0  0  0
   25.8610   12.3806   18.1734 H   0  0  0  0  0  0
   27.0392    9.8303   21.5236 H   0  0  0  0  0  0
   30.7340   11.7013   21.5501 H   0  0  0  0  0  0
   27.4016   13.6992   19.7043 H   0  0  0  0  0  0
   24.9076   11.1737   22.1778 H   0  0  0  0  0  0
   22.6002    8.3395   24.7163 H   0  0  0  0  0  0
   22.9669    9.4790   25.8637 H   0  0  0  0  0  0
  1 29  1  0  0  0
  1 30  1  0  0  0
  1 31  1  0  0  0
  1  2  1  0  0  0
  2  3  1  0  0  0
  2 27  1  0  0  0
  3  4  2  0  0  0
  3  5  1  0  0  0
  5 26  1  0  0  0
  5  6  1  0  0  0
  5 12  1  0  0  0
  6 11  1  0  0  0
  6  7  2  0  0  0
  7  8  1  0  0  0
  7 32  1  0  0  0
  8  9  2  0  0  0
  8 33  1  0  0  0
  9 10  1  0  0  0
  9 34  1  0  0  0
 10 11  2  0  0  0
 10 35  1  0  0  0
 11 36  1  0  0  0
 12 25  1  0  0  0
 12 13  2  0  0  0
 13 14  1  0  0  0
 13 37  1  0  0  0
 14 15  2  0  0  0
 14 38  1  0  0  0
 15 16  1  0  0  0
 15 39  1  0  0  0
 16 17  1  0  0  0
 16 25  2  0  0  0
 17 24  1  0  0  0
 17 18  2  0  0  0
 18 19  1  0  0  0
 18 40  1  0  0  0
 19 20  2  0  0  0
 20 21  1  0  0  0
 20 41  1  0  0  0
 21 22  1  0  0  0
 21 24  2  0  0  0
 22 23  3  0  0  0
 24 42  1  0  0  0
 25 43  1  0  0  0
 26 27  2  0  0  0
 27 28  1  0  0  0
 28 44  1  0  0  0
 28 45  1  0  0  0
M  END
> <s_m_source_file>
/home/user-home/yujie/0_PBCNetv2/data/FEP/Bace/inp_ligprep.csv

> <i_m_source_file_index>
6

> <i_lp_mmshare_version>
51139

> <i_f3d_flags>
0

> <s_epik_input>
W2NIXTFbY0hdW2NIXVtjSF1bY0hdYzFbQ0BdMihDKD1PKU4oW0NIM10pQyg9TjIpW05IMl0pYzNbY0hdW2NIXVtjSF1jKFtjSF0zKS1jNFtjSF1uW2NIXWMoQyNOKVtjSF00

> <s_epik_cmdline>
J2VwaWtfcHl0aG9uJywgJy1waHQnLCAnMi4wJywgJy1waCcsICc3LjQnLCAnLXRuJywgJzgnLCAnLW1hJywgJzIwMCcsICctaW1hZScsICc8aW5maWxlLm1hZT4nLCAnLW9tYWUnLCAnPG91dGZpbGUubWFlPic=

> <r_lp_tautomer_probability>
1

> <r_epik_Ionization_Penalty>
  0.5023

> <r_epik_Ionization_Penalty_Charging>
  0.0000

> <r_epik_Ionization_Penalty_Neutral>
  0.5023

> <r_epik_State_Penalty>
 -0.0000

> <r_epik_Charging_Adjusted_Penalty>
0

> <i_epik_Tot_Q>
0

> <i_epik_Tot_abs_Q>
0

> <s_epik_Chemistry_Notes>
This compound has an imine and may undergo hydrolysis.

> <s_lp_Force_Field>
OPLS3e

> <r_lp_Energy>
51.1177

> <b_lp_Chiralities_Consistent>
1

> <s_lp_Variant>
Bace_CAT-4n-1

> <s_i_glide_gridfile>
Bace-001-gridgen

> <i_i_glide_lignum>
8

> <i_i_glide_rotatable_bonds>
3

> <r_i_docking_score>
-5.17668827742925

> <r_i_glide_ligand_efficiency>
-0.184881724193902

> <r_i_glide_ligand_efficiency_sa>
-0.561409804164983

> <r_i_glide_ligand_efficiency_ln>
-1.19493164860306

> <r_i_glide_gscore>
-5.17668827742925

> <r_i_glide_lipo>
-1.40809783152535

> <r_i_glide_hbond>
-0.234550908438559

> <r_i_glide_metal>
-0

> <r_i_glide_rewards>
-1.09449565733777

> <r_i_glide_evdw>
-39.0859909057617

> <r_i_glide_ecoul>
-5.16935873031616

> <r_i_glide_erotb>
0.428008657944099

> <r_i_glide_esite>
-0.137849183236153

> <r_i_glide_emodel>
-59.1644627899095

> <r_i_glide_energy>
-44.2553496360779

> <r_i_glide_einternal>
3.04278755187988

> <i_i_glide_confnum>
23

> <i_i_glide_posenum>
275

> <r_i_glide_eff_state_penalty>
-0

$$$$
