Bace_CAT-13n
                    3D
 Schrodinger Suite 2020-3.
 43 46  0  0  1  0            999 V2000
   22.7531    9.4641   24.6159 C   0  0  0  0  0  0
   22.6790   10.5350   23.6183 N   0  0  0  0  0  0
   22.9329   10.3053   22.3218 C   0  0  0  0  0  0
   23.3899    9.3021   21.7792 O   0  0  0  0  0  0
   22.5256   11.6127   21.6234 C   0  0  1  0  0  0
   23.6450   12.0775   20.6407 C   0  0  0  0  0  0
   23.3543   12.5253   19.3415 C   0  0  0  0  0  0
   24.3774   12.8569   18.4534 C   0  0  0  0  0  0
   25.7102   12.7477   18.8484 C   0  0  0  0  0  0
   26.0432   12.3181   20.1397 C   0  0  0  0  0  0
   27.4644   12.1547   20.5712 C   0  0  0  0  0  0
   28.4645   13.0356   20.1352 C   0  0  0  0  0  0
   29.7875   12.8833   20.5530 C   0  0  0  0  0  0
   30.1309   11.8467   21.4176 C   0  0  0  0  0  0
   29.1539   10.9637   21.8666 C   0  0  0  0  0  0
   29.5746    9.7019   22.9670 Cl  0  0  0  0  0  0
   27.8350   11.1136   21.4381 C   0  0  0  0  0  0
   24.9980   12.0176   21.0220 C   0  0  0  0  0  0
   21.1242   11.4140   20.9480 C   0  0  0  0  0  0
   20.9588   10.3076   20.1605 N   0  0  0  0  0  0
   19.7249   10.1021   19.6344 C   0  0  0  0  0  0
   18.6629   10.9825   19.8477 C   0  0  0  0  0  0
   18.9301   12.1026   20.6335 C   0  0  0  0  0  0
   20.1500   12.3440   21.1789 N   0  0  0  0  0  0
   22.4521   12.5507   22.7246 N   0  0  0  0  0  0
   22.5261   11.8699   23.7931 C   0  0  0  0  0  0
   22.4678   12.4141   25.0946 N   0  0  0  0  0  0
   23.7917    9.2474   24.8686 H   0  0  0  0  0  0
   22.2309    9.7350   25.5356 H   0  0  0  0  0  0
   22.3069    8.5338   24.2438 H   0  0  0  0  0  0
   22.3335   12.6037   18.9972 H   0  0  0  0  0  0
   24.1411   13.1763   17.4472 H   0  0  0  0  0  0
   26.4839   12.9791   18.1306 H   0  0  0  0  0  0
   28.2183   13.8532   19.4737 H   0  0  0  0  0  0
   30.5487   13.5702   20.2125 H   0  0  0  0  0  0
   31.1515   11.7373   21.7521 H   0  0  0  0  0  0
   27.0953   10.4131   21.7992 H   0  0  0  0  0  0
   25.2416   11.7011   22.0263 H   0  0  0  0  0  0
   19.6056    9.2090   19.0392 H   0  0  0  0  0  0
   17.6828   10.8150   19.4278 H   0  0  0  0  0  0
   18.1648   12.8371   20.8327 H   0  0  0  0  0  0
   22.4510   13.4213   25.1373 H   0  0  0  0  0  0
   23.1497   12.0696   25.7565 H   0  0  0  0  0  0
  1 28  1  0  0  0
  1 29  1  0  0  0
  1 30  1  0  0  0
  1  2  1  0  0  0
  2  3  1  0  0  0
  2 26  1  0  0  0
  3  4  2  0  0  0
  3  5  1  0  0  0
  5 25  1  0  0  0
  5  6  1  0  0  0
  5 19  1  0  0  0
  6 18  1  0  0  0
  6  7  2  0  0  0
  7  8  1  0  0  0
  7 31  1  0  0  0
  8  9  2  0  0  0
  8 32  1  0  0  0
  9 10  1  0  0  0
  9 33  1  0  0  0
 10 11  1  0  0  0
 10 18  2  0  0  0
 11 17  1  0  0  0
 11 12  2  0  0  0
 12 13  1  0  0  0
 12 34  1  0  0  0
 13 14  2  0  0  0
 13 35  1  0  0  0
 14 15  1  0  0  0
 14 36  1  0  0  0
 15 16  1  0  0  0
 15 17  2  0  0  0
 17 37  1  0  0  0
 18 38  1  0  0  0
 19 24  1  0  0  0
 19 20  2  0  0  0
 20 21  1  0  0  0
 21 22  2  0  0  0
 21 39  1  0  0  0
 22 23  1  0  0  0
 22 40  1  0  0  0
 23 24  2  0  0  0
 23 41  1  0  0  0
 25 26  2  0  0  0
 26 27  1  0  0  0
 27 42  1  0  0  0
 27 43  1  0  0  0
M  END
> <s_m_source_file>
/home/user-home/yujie/0_PBCNetv2/data/FEP/Bace/inp_ligprep.csv

> <i_m_source_file_index>
20

> <i_lp_mmshare_version>
51139

> <i_f3d_flags>
0

> <s_epik_input>
bjFbY0hdW2NIXVtjSF1uYzFbQ0BAXTIoQyg9TylOKFtDSDNdKUMoPU4yKVtOSDJdKWMzW2NIXVtjSF1bY0hdYyhbY0hdMyktYzRbY0hdW2NIXVtjSF1jKENsKVtjSF00

> <s_epik_cmdline>
J2VwaWtfcHl0aG9uJywgJy1waHQnLCAnMi4wJywgJy1waCcsICc3LjQnLCAnLXRuJywgJzgnLCAnLW1hJywgJzIwMCcsICctaW1hZScsICc8aW5maWxlLm1hZT4nLCAnLW9tYWUnLCAnPG91dGZpbGUubWFlPic=

> <r_lp_tautomer_probability>
1

> <r_epik_Ionization_Penalty>
  0.1114

> <r_epik_Ionization_Penalty_Charging>
  0.0000

> <r_epik_Ionization_Penalty_Neutral>
  0.1114

> <r_epik_State_Penalty>
 -0.0000

> <r_epik_Charging_Adjusted_Penalty>
0

> <i_epik_Tot_Q>
0

> <i_epik_Tot_abs_Q>
0

> <s_epik_Chemistry_Notes>
This compound contains an electron-poor aromatic ring that is susceptible to covalent hydrolysis at low pH, typically resulting in measured values for nitrogen ring protonation that are around two units higher than predicted values. This compound has an imine and may undergo hydrolysis.

> <s_lp_Force_Field>
OPLS3e

> <r_lp_Energy>
49.8112

> <b_lp_Chiralities_Consistent>
1

> <s_lp_Variant>
Bace_CAT-13n-1

> <s_i_glide_gridfile>
Bace-001-gridgen

> <i_i_glide_lignum>
24

> <i_i_glide_rotatable_bonds>
3

> <r_i_docking_score>
-5.05956183459513

> <r_i_glide_ligand_efficiency>
-0.187391179059079

> <r_i_glide_ligand_efficiency_sa>
-0.562173536559626

> <r_i_glide_ligand_efficiency_ln>
-1.17778258169779

> <r_i_glide_gscore>
-5.05956183459513

> <r_i_glide_lipo>
-1.94075319864897

> <r_i_glide_hbond>
0

> <r_i_glide_metal>
-0

> <r_i_glide_rewards>
-1.02679081685175

> <r_i_glide_evdw>
-41.9699325561523

> <r_i_glide_ecoul>
-1.90459370613098

> <r_i_glide_erotb>
0.407121843011232

> <r_i_glide_esite>
-0.114953978378376

> <r_i_glide_emodel>
-54.5334781523658

> <r_i_glide_energy>
-43.8745262622833

> <r_i_glide_einternal>
5.53695821762085

> <i_i_glide_confnum>
12

> <i_i_glide_posenum>
151

> <r_i_glide_eff_state_penalty>
-0

$$$$
