Bace_CAT-17c
                    3D
 Schrodinger Suite 2024-1.
 43 46  0  0  1  0            999 V2000
   22.8188   11.6199   25.0490 C   0  0  0  0  0  0
   22.5996   11.1982   23.6687 N   0  0  0  0  0  0
   22.3842   11.9553   22.5971 C   0  0  0  0  0  0
   22.2990   13.1843   22.5685 O   0  0  0  0  0  0
   22.2553   11.0483   21.3588 C   0  0  2  0  0  0
   23.3967   11.3084   20.3492 C   0  0  0  0  0  0
   23.1343   11.5345   18.9765 C   0  0  0  0  0  0
   24.1851   11.7744   18.0729 C   0  0  0  0  0  0
   25.5148   11.7986   18.5255 C   0  0  0  0  0  0
   25.8133   11.5690   19.8851 C   0  0  0  0  0  0
   27.2034   11.6108   20.3735 C   0  0  0  0  0  0
   28.0797   12.6477   19.9826 C   0  0  0  0  0  0
   29.3959   12.7073   20.4807 C   0  0  0  0  0  0
   29.8506   11.7327   21.3872 C   0  0  0  0  0  0
   28.9886   10.6940   21.7872 C   0  0  0  0  0  0
   29.4352    9.7021   22.7473 C   0  0  0  0  0  0
   29.7919    8.9133   23.5126 N   0  0  0  0  0  0
   27.6814   10.6292   21.2691 C   0  0  0  0  0  0
   24.7474   11.3143   20.7777 C   0  0  0  0  0  0
   20.8540   11.2102   20.7451 C   0  0  0  0  0  0
   20.1416   10.0655   20.0486 C   0  0  0  0  0  0
   19.6069   10.5972   21.3566 C   0  0  0  0  0  0
   22.4161    9.7390   21.9932 N   0  0  0  0  0  0
   22.5906    9.8860   23.2612 C   0  0  0  0  0  0
   22.7348    8.9046   24.2207 N   0  0  0  0  0  0
   23.7521   11.1962   25.4202 H   0  0  0  0  0  0
   22.8860   12.7045   25.1369 H   0  0  0  0  0  0
   22.0078   11.2739   25.6905 H   0  0  0  0  0  0
   22.1286   11.5236   18.5863 H   0  0  0  0  0  0
   23.9715   11.9441   17.0278 H   0  0  0  0  0  0
   26.3070   11.9884   17.8154 H   0  0  0  0  0  0
   27.7393   13.4135   19.3009 H   0  0  0  0  0  0
   30.0559   13.5058   20.1758 H   0  0  0  0  0  0
   30.8569   11.7931   21.7780 H   0  0  0  0  0  0
   27.0248    9.8274   21.5777 H   0  0  0  0  0  0
   24.9735   11.1348   21.8187 H   0  0  0  0  0  0
   20.6942   12.1974   20.3129 H   0  0  0  0  0  0
   19.5919   10.3039   19.1405 H   0  0  0  0  0  0
   20.6135    9.0834   20.0604 H   0  0  0  0  0  0
   19.7123    9.9605   22.2334 H   0  0  0  0  0  0
   18.6933   11.1868   21.3216 H   0  0  0  0  0  0
   22.6936    7.9039   23.9653 H   0  0  0  0  0  0
   22.9752    9.0459   25.1948 H   0  0  0  0  0  0
  1 26  1  0  0  0
  1 27  1  0  0  0
  1 28  1  0  0  0
  1  2  1  0  0  0
  2  3  1  0  0  0
  2 24  1  0  0  0
  3  4  2  0  0  0
  3  5  1  0  0  0
  5 23  1  0  0  0
  5  6  1  0  0  0
  5 20  1  0  0  0
  6 19  1  0  0  0
  6  7  2  0  0  0
  7  8  1  0  0  0
  7 29  1  0  0  0
  8  9  2  0  0  0
  8 30  1  0  0  0
  9 10  1  0  0  0
  9 31  1  0  0  0
 10 11  1  0  0  0
 10 19  2  0  0  0
 11 18  1  0  0  0
 11 12  2  0  0  0
 12 13  1  0  0  0
 12 32  1  0  0  0
 13 14  2  0  0  0
 13 33  1  0  0  0
 14 15  1  0  0  0
 14 34  1  0  0  0
 15 16  1  0  0  0
 15 18  2  0  0  0
 16 17  3  0  0  0
 18 35  1  0  0  0
 19 36  1  0  0  0
 20 22  1  0  0  0
 20 21  1  0  0  0
 20 37  1  0  0  0
 21 22  1  0  0  0
 21 38  1  0  0  0
 21 39  1  0  0  0
 22 40  1  0  0  0
 22 41  1  0  0  0
 23 24  2  0  0  0
 24 25  1  0  0  0
 25 42  1  0  0  0
 25 43  1  0  0  0
M  END
> <Tot Q>
0

> <flags>
0

> <Source File Index>
9

> <subgroup collapsed>
0

> <Ionization Penalty>
1.917

> <State Penalty>
0

> <docking score>
-6.03481

> <glide emodel>
-59.1017

> <glide gscore>
-6.03481

> <tautomer probability>
1

> <Source File>
glide-dock_SP_2_pv.maegz

> <Source Path>
C:\Users\yujie\Desktop\FEPs\bace\docking\glide-dock_SP_2

> <entry id>
4418

> <job name>
glide-dock_SP_2

> <subgroup title>
glide-dock_SP_2_pv

> <subgroupid>
glide-dock_SP_2_pv

$$$$
