Bace_CAT-13g
                    3D
 Schrodinger Suite 2020-3.
 51 54  0  0  1  0            999 V2000
   22.5918   11.4235   25.4462 C   0  0  0  0  0  0
   22.3667   11.6338   24.0169 N   0  0  0  0  0  0
   22.2840   10.6031   23.1577 C   0  0  0  0  0  0
   22.3938    9.3982   23.3739 O   0  0  0  0  0  0
   21.9852   11.2725   21.8097 C   0  0  1  0  0  0
   23.1491   10.9683   20.8125 C   0  0  0  0  0  0
   22.9645   10.2517   19.6202 C   0  0  0  0  0  0
   24.0243   10.0416   18.7405 C   0  0  0  0  0  0
   25.2973   10.5133   19.0497 C   0  0  0  0  0  0
   25.5441   11.1867   20.2545 C   0  0  0  0  0  0
   26.9218   11.6374   20.6419 C   0  0  0  0  0  0
   28.0635   11.0003   20.1316 C   0  0  0  0  0  0
   29.3429   11.4035   20.5099 C   0  0  0  0  0  0
   29.5112   12.4431   21.4189 C   0  0  0  0  0  0
   28.3950   13.0865   21.9461 C   0  0  0  0  0  0
   28.5894   14.3631   23.0930 Cl  0  0  0  0  0  0
   27.1156   12.6939   21.5492 C   0  0  0  0  0  0
   24.4538   11.4042   21.1068 C   0  0  0  0  0  0
   20.5332   10.8531   21.3134 C   0  0  0  0  0  0
   19.4039   10.9276   22.3967 C   0  0  0  0  0  0
   18.0647   10.3681   21.8832 C   0  0  0  0  0  0
   17.6075   11.1073   20.6140 C   0  0  0  0  0  0
   18.7114   11.1454   19.5356 C   0  0  0  0  0  0
   20.0293   11.7014   20.1048 C   0  0  0  0  0  0
   21.9881   12.6861   22.1083 N   0  0  0  0  0  0
   22.1984   12.7989   23.3503 C   0  0  0  0  0  0
   22.2578   14.0323   24.0367 N   0  0  0  0  0  0
   23.3754   12.0911   25.8082 H   0  0  0  0  0  0
   21.6785   11.6242   26.0114 H   0  0  0  0  0  0
   22.9071   10.4011   25.6736 H   0  0  0  0  0  0
   22.0060    9.8450   19.3465 H   0  0  0  0  0  0
   23.8600    9.5036   17.8187 H   0  0  0  0  0  0
   26.0922   10.3375   18.3402 H   0  0  0  0  0  0
   27.9759   10.1723   19.4450 H   0  0  0  0  0  0
   30.1993   10.8987   20.0972 H   0  0  0  0  0  0
   30.5048   12.7461   21.7194 H   0  0  0  0  0  0
   26.2741   13.2272   21.9637 H   0  0  0  0  0  0
   24.6148   11.9005   22.0506 H   0  0  0  0  0  0
   20.5777    9.8068   21.0068 H   0  0  0  0  0  0
   19.2922   11.9524   22.7577 H   0  0  0  0  0  0
   19.6701   10.3520   23.2843 H   0  0  0  0  0  0
   17.3021   10.4569   22.6588 H   0  0  0  0  0  0
   18.1697    9.3019   21.6691 H   0  0  0  0  0  0
   17.3174   12.1287   20.8671 H   0  0  0  0  0  0
   16.7138   10.6229   20.2207 H   0  0  0  0  0  0
   18.3863   11.7474   18.6841 H   0  0  0  0  0  0
   18.8858   10.1391   19.1507 H   0  0  0  0  0  0
   20.7694   11.7238   19.3072 H   0  0  0  0  0  0
   19.9272   12.7505   20.3879 H   0  0  0  0  0  0
   22.2137   14.8472   23.4468 H   0  0  0  0  0  0
   23.0166   14.1454   24.6941 H   0  0  0  0  0  0
  1 28  1  0  0  0
  1 29  1  0  0  0
  1 30  1  0  0  0
  1  2  1  0  0  0
  2  3  1  0  0  0
  2 26  1  0  0  0
  3  4  2  0  0  0
  3  5  1  0  0  0
  5 25  1  0  0  0
  5  6  1  0  0  0
  5 19  1  0  0  0
  6 18  1  0  0  0
  6  7  2  0  0  0
  7  8  1  0  0  0
  7 31  1  0  0  0
  8  9  2  0  0  0
  8 32  1  0  0  0
  9 10  1  0  0  0
  9 33  1  0  0  0
 10 11  1  0  0  0
 10 18  2  0  0  0
 11 17  1  0  0  0
 11 12  2  0  0  0
 12 13  1  0  0  0
 12 34  1  0  0  0
 13 14  2  0  0  0
 13 35  1  0  0  0
 14 15  1  0  0  0
 14 36  1  0  0  0
 15 16  1  0  0  0
 15 17  2  0  0  0
 17 37  1  0  0  0
 18 38  1  0  0  0
 19 24  1  0  0  0
 19 20  1  0  0  0
 19 39  1  0  0  0
 20 21  1  0  0  0
 20 40  1  0  0  0
 20 41  1  0  0  0
 21 22  1  0  0  0
 21 42  1  0  0  0
 21 43  1  0  0  0
 22 23  1  0  0  0
 22 44  1  0  0  0
 22 45  1  0  0  0
 23 24  1  0  0  0
 23 46  1  0  0  0
 23 47  1  0  0  0
 24 48  1  0  0  0
 24 49  1  0  0  0
 25 26  2  0  0  0
 26 27  1  0  0  0
 27 50  1  0  0  0
 27 51  1  0  0  0
M  END
> <s_m_source_file>
/home/user-home/yujie/0_PBCNetv2/data/FEP/Bace/inp_ligprep.csv

> <i_m_source_file_index>
4

> <i_lp_mmshare_version>
51139

> <i_f3d_flags>
0

> <s_epik_input>
W0NIMl0xW0NIMl1bQ0gyXVtDSDJdW0NIMl1bQ0hdMVtDQEBdMihDKD1PKU4oW0NIM10pQyg9TjIpW05IMl0pYzNbY0hdW2NIXVtjSF1jKFtjSF0zKS1jNFtjSF1bY0hdW2NIXWMoQ2wpW2NIXTQ=

> <s_epik_cmdline>
J2VwaWtfcHl0aG9uJywgJy1waHQnLCAnMi4wJywgJy1waCcsICc3LjQnLCAnLXRuJywgJzgnLCAnLW1hJywgJzIwMCcsICctaW1hZScsICc8aW5maWxlLm1hZT4nLCAnLW9tYWUnLCAnPG91dGZpbGUubWFlPic=

> <r_lp_tautomer_probability>
1

> <r_epik_Ionization_Penalty>
  1.3514

> <r_epik_Ionization_Penalty_Charging>
  0.0000

> <r_epik_Ionization_Penalty_Neutral>
  1.3514

> <r_epik_State_Penalty>
 -0.0000

> <r_epik_Charging_Adjusted_Penalty>
0

> <i_epik_Tot_Q>
0

> <i_epik_Tot_abs_Q>
0

> <s_epik_Chemistry_Notes>
This compound has an imine and may undergo hydrolysis.

> <s_lp_Force_Field>
OPLS3e

> <r_lp_Energy>
38.1145

> <b_lp_Chiralities_Consistent>
1

> <s_lp_Variant>
Bace_CAT-13g-1

> <s_i_glide_gridfile>
Bace-001-gridgen

> <i_i_glide_lignum>
4

> <i_i_glide_rotatable_bonds>
3

> <r_i_docking_score>
-4.5139224980658

> <r_i_glide_ligand_efficiency>
-0.167182314743178

> <r_i_glide_ligand_efficiency_sa>
-0.501546943678528

> <r_i_glide_ligand_efficiency_ln>
-1.05076673972127

> <r_i_glide_gscore>
-4.5139224980658

> <r_i_glide_lipo>
-1.95227850035973

> <r_i_glide_hbond>
0

> <r_i_glide_metal>
-0

> <r_i_glide_rewards>
-1.02315113178009

> <r_i_glide_evdw>
-38.1225318908691

> <r_i_glide_ecoul>
0.230486914515495

> <r_i_glide_erotb>
0.399378337761411

> <r_i_glide_esite>
-0.0663176463212557

> <r_i_glide_emodel>
-48.9668097958527

> <r_i_glide_energy>
-37.8920449763536

> <r_i_glide_einternal>
2.05083584785461

> <i_i_glide_confnum>
17

> <i_i_glide_posenum>
188

> <r_i_glide_eff_state_penalty>
-0

$$$$
