Bace_CAT-4b
                    3D
 Schrodinger Suite 2020-3.
 49 52  0  0  1  0            999 V2000
   29.7229   14.6823   19.8801 C   0  0  0  0  0  0
   30.1915   13.4774   20.4745 O   0  0  0  0  0  0
   29.3220   12.4146   20.6205 C   0  0  0  0  0  0
   29.8018   11.2989   21.3063 C   0  0  0  0  0  0
   28.9922   10.1831   21.5076 C   0  0  0  0  0  0
   27.6852   10.1788   21.0252 C   0  0  0  0  0  0
   27.1720   11.2856   20.3398 C   0  0  0  0  0  0
   25.7587   11.3124   19.8820 C   0  0  0  0  0  0
   25.4214   11.7056   18.5830 C   0  0  0  0  0  0
   24.0879   11.7646   18.1850 C   0  0  0  0  0  0
   23.0721   11.4528   19.0876 C   0  0  0  0  0  0
   23.3730   11.0653   20.4034 C   0  0  0  0  0  0
   22.2670   10.7750   21.4546 C   0  0  1  0  0  0
   20.8187   10.6638   20.8746 C   0  0  0  0  0  0
   20.0645   11.8108   20.5661 C   0  0  0  0  0  0
   18.7522   11.7019   20.1142 C   0  0  0  0  0  0
   18.1811   10.4472   19.9417 C   0  0  0  0  0  0
   18.9226    9.2988   20.1876 C   0  0  0  0  0  0
   20.2325    9.4086   20.6420 C   0  0  0  0  0  0
   22.6140    9.5821   22.2019 N   0  0  0  0  0  0
   22.4911    9.8237   23.5822 C   0  0  0  0  0  0
   22.5002    8.9022   24.4343 N   0  0  0  0  0  0
   22.4523   11.1678   23.7433 N   0  0  0  0  0  0
   22.5278   11.8989   25.0119 C   0  0  0  0  0  0
   22.3371   11.8370   22.5749 C   0  0  0  0  0  0
   22.2970   13.0617   22.4127 O   0  0  0  0  0  0
   24.7285   10.9831   20.7687 C   0  0  0  0  0  0
   28.0042   12.3927   20.1359 C   0  0  0  0  0  0
   30.5366   15.4068   19.8508 H   0  0  0  0  0  0
   29.3833   14.5254   18.8560 H   0  0  0  0  0  0
   28.9096   15.1207   20.4605 H   0  0  0  0  0  0
   30.8130   11.3033   21.6885 H   0  0  0  0  0  0
   29.3738    9.3269   22.0440 H   0  0  0  0  0  0
   27.0609    9.3143   21.2031 H   0  0  0  0  0  0
   26.1934   11.9637   17.8720 H   0  0  0  0  0  0
   23.8419   12.0624   17.1759 H   0  0  0  0  0  0
   22.0511   11.5269   18.7464 H   0  0  0  0  0  0
   20.4831   12.7989   20.6874 H   0  0  0  0  0  0
   18.1738   12.5878   19.9051 H   0  0  0  0  0  0
   17.1562   10.3669   19.6127 H   0  0  0  0  0  0
   18.4865    8.3215   20.0381 H   0  0  0  0  0  0
   20.7840    8.5021   20.8274 H   0  0  0  0  0  0
   22.3418    8.7162   21.7461 H   0  0  0  0  0  0
   22.4795   11.2146   25.8629 H   0  0  0  0  0  0
   23.4722   12.4420   25.0796 H   0  0  0  0  0  0
   21.7076   12.6121   25.1058 H   0  0  0  0  0  0
   24.9855   10.6989   21.7810 H   0  0  0  0  0  0
   27.6003   13.2470   19.6148 H   0  0  0  0  0  0
   22.5918    7.9561   24.0335 H   0  0  0  0  0  0
  1  2  1  0  0  0
  1 29  1  0  0  0
  1 30  1  0  0  0
  1 31  1  0  0  0
  2  3  1  0  0  0
  3 28  1  0  0  0
  3  4  2  0  0  0
  4  5  1  0  0  0
  4 32  1  0  0  0
  5  6  2  0  0  0
  5 33  1  0  0  0
  6  7  1  0  0  0
  6 34  1  0  0  0
  7  8  1  0  0  0
  7 28  2  0  0  0
  8 27  1  0  0  0
  8  9  2  0  0  0
  9 10  1  0  0  0
  9 35  1  0  0  0
 10 11  2  0  0  0
 10 36  1  0  0  0
 11 12  1  0  0  0
 11 37  1  0  0  0
 12 27  2  0  0  0
 12 13  1  0  0  0
 13 20  1  0  0  0
 13 25  1  0  0  0
 13 14  1  0  0  0
 14 19  1  0  0  0
 14 15  2  0  0  0
 15 16  1  0  0  0
 15 38  1  0  0  0
 16 17  2  0  0  0
 16 39  1  0  0  0
 17 18  1  0  0  0
 17 40  1  0  0  0
 18 19  2  0  0  0
 18 41  1  0  0  0
 19 42  1  0  0  0
 20 21  1  0  0  0
 20 43  1  0  0  0
 21 23  1  0  0  0
 21 22  2  0  0  0
 22 49  1  0  0  0
 23 25  1  0  0  0
 23 24  1  0  0  0
 24 44  1  0  0  0
 24 45  1  0  0  0
 24 46  1  0  0  0
 25 26  2  0  0  0
 27 47  1  0  0  0
 28 48  1  0  0  0
M  END
> <s_m_source_file>
/home/user-home/yujie/0_PBCNetv2/data/FEP/Bace/inp_ligprep.csv

> <i_m_source_file_index>
5

> <i_lp_mmshare_version>
51139

> <i_f3d_flags>
0

> <s_epik_input>
W0NIM11PYzFbY0hdW2NIXVtjSF1jKFtjSF0xKS1jMltjSF1bY0hdW2NIXWMoW2NIXTIpW0NAXTMoTj1DKFtOSDJdKU4oW0NIM10pQzM9TyljNFtjSF1bY0hdW2NIXVtjSF1bY0hdNA==

> <s_epik_cmdline>
J2VwaWtfcHl0aG9uJywgJy1waHQnLCAnMi4wJywgJy1waCcsICc3LjQnLCAnLXRuJywgJzgnLCAnLW1hJywgJzIwMCcsICctaW1hZScsICc8aW5maWxlLm1hZT4nLCAnLW9tYWUnLCAnPG91dGZpbGUubWFlPic=

> <r_lp_tautomer_probability>
0.49964

> <r_epik_Ionization_Penalty>
  5.7586

> <r_epik_Ionization_Penalty_Charging>
  0.0000

> <r_epik_Ionization_Penalty_Neutral>
  5.7586

> <r_epik_State_Penalty>
  1.6705

> <r_epik_Charging_Adjusted_Penalty>
1.6705

> <i_epik_Tot_Q>
0

> <i_epik_Tot_abs_Q>
0

> <s_epik_Chemistry_Notes>
This compound has an imine and may undergo hydrolysis.

> <s_lp_Force_Field>
OPLS3e

> <r_lp_Energy>
49.9188

> <b_lp_Chiralities_Consistent>
1

> <s_lp_Variant>
Bace_CAT-4b-2

> <s_i_glide_gridfile>
Bace-001-gridgen

> <i_i_glide_lignum>
6

> <i_i_glide_rotatable_bonds>
4

> <r_i_docking_score>
-4.49961167753431

> <r_i_glide_ligand_efficiency>
-0.160700417054797

> <r_i_glide_ligand_efficiency_sa>
-0.487981113662397

> <r_i_glide_ligand_efficiency_ln>
-1.0386424895145

> <r_i_glide_gscore>
-6.17011167753431

> <r_i_glide_lipo>
-2.33821234311371

> <r_i_glide_hbond>
-0.304

> <r_i_glide_metal>
-0

> <r_i_glide_rewards>
-0.964329304352603

> <r_i_glide_evdw>
-39.5428314208984

> <r_i_glide_ecoul>
-5.77369403839111

> <r_i_glide_erotb>
0.419748842729656

> <r_i_glide_esite>
-0.140123195994054

> <r_i_glide_emodel>
-61.0287599313137

> <r_i_glide_energy>
-45.3165254592896

> <r_i_glide_einternal>
3.04432559013367

> <i_i_glide_confnum>
10

> <i_i_glide_posenum>
298

> <r_i_glide_eff_state_penalty>
1.6705

$$$$
