Bace_CAT-13d
                    3D
 Schrodinger Suite 2024-1.
 42 45  0  0  1  0            999 V2000
   22.8280   11.6244   25.0211 C   0  0  0  0  0  0
   22.6144   11.1971   23.6414 N   0  0  0  0  0  0
   22.4469   11.9519   22.5598 C   0  0  0  0  0  0
   22.4077   13.1832   22.5195 O   0  0  0  0  0  0
   22.3020   11.0386   21.3276 C   0  0  2  0  0  0
   23.4675   11.2468   20.3327 C   0  0  0  0  0  0
   23.2322   11.4892   18.9585 C   0  0  0  0  0  0
   24.3036   11.6929   18.0709 C   0  0  0  0  0  0
   25.6274   11.6656   18.5428 C   0  0  0  0  0  0
   25.9018   11.4191   19.9042 C   0  0  0  0  0  0
   27.2889   11.4183   20.4084 C   0  0  0  0  0  0
   28.2039   12.4163   20.0045 C   0  0  0  0  0  0
   29.5222   12.4367   20.5004 C   0  0  0  0  0  0
   29.9389   11.4641   21.4262 C   0  0  0  0  0  0
   29.0369   10.4706   21.8482 C   0  0  0  0  0  0
   29.5213    9.3023   23.0210 Cl  0  0  0  0  0  0
   27.7304   10.4406   21.3267 C   0  0  0  0  0  0
   24.8127   11.1977   20.7792 C   0  0  0  0  0  0
   20.9177   11.2545   20.6894 C   0  0  0  0  0  0
   20.1693   10.1372   19.9880 C   0  0  0  0  0  0
   19.6361   10.6975   21.2836 C   0  0  0  0  0  0
   22.3991    9.7296   21.9781 N   0  0  0  0  0  0
   22.5583    9.8819   23.2474 C   0  0  0  0  0  0
   22.6444    8.9053   24.2205 N   0  0  0  0  0  0
   22.9592   12.7045   25.0959 H   0  0  0  0  0  0
   21.9814   11.3383   25.6465 H   0  0  0  0  0  0
   23.7247   11.1505   25.4193 H   0  0  0  0  0  0
   22.2329   11.5204   18.5528 H   0  0  0  0  0  0
   24.1109   11.8743   17.0238 H   0  0  0  0  0  0
   26.4348   11.8312   17.8438 H   0  0  0  0  0  0
   27.8934   13.1834   19.3103 H   0  0  0  0  0  0
   30.2124   13.2034   20.1807 H   0  0  0  0  0  0
   30.9448   11.4892   21.8205 H   0  0  0  0  0  0
   27.0518    9.6674   21.6554 H   0  0  0  0  0  0
   25.0158   11.0023   21.8207 H   0  0  0  0  0  0
   20.8056   12.2450   20.2500 H   0  0  0  0  0  0
   19.6440   10.3923   19.0692 H   0  0  0  0  0  0
   20.5993    9.1363   20.0122 H   0  0  0  0  0  0
   19.7005   10.0621   22.1650 H   0  0  0  0  0  0
   18.7489   11.3257   21.2319 H   0  0  0  0  0  0
   22.5923    7.9026   23.9706 H   0  0  0  0  0  0
   22.8817    9.0499   25.1948 H   0  0  0  0  0  0
  1 25  1  0  0  0
  1 26  1  0  0  0
  1 27  1  0  0  0
  1  2  1  0  0  0
  2  3  1  0  0  0
  2 23  1  0  0  0
  3  4  2  0  0  0
  3  5  1  0  0  0
  5 22  1  0  0  0
  5  6  1  0  0  0
  5 19  1  0  0  0
  6 18  1  0  0  0
  6  7  2  0  0  0
  7  8  1  0  0  0
  7 28  1  0  0  0
  8  9  2  0  0  0
  8 29  1  0  0  0
  9 10  1  0  0  0
  9 30  1  0  0  0
 10 11  1  0  0  0
 10 18  2  0  0  0
 11 17  1  0  0  0
 11 12  2  0  0  0
 12 13  1  0  0  0
 12 31  1  0  0  0
 13 14  2  0  0  0
 13 32  1  0  0  0
 14 15  1  0  0  0
 14 33  1  0  0  0
 15 16  1  0  0  0
 15 17  2  0  0  0
 17 34  1  0  0  0
 18 35  1  0  0  0
 19 21  1  0  0  0
 19 20  1  0  0  0
 19 36  1  0  0  0
 20 21  1  0  0  0
 20 37  1  0  0  0
 20 38  1  0  0  0
 21 39  1  0  0  0
 21 40  1  0  0  0
 22 23  2  0  0  0
 23 24  1  0  0  0
 24 41  1  0  0  0
 24 42  1  0  0  0
M  END
> <Tot Q>
0

> <flags>
0

> <Source File Index>
10

> <subgroup collapsed>
0

> <Ionization Penalty>
1.917

> <State Penalty>
0

> <docking score>
-6.06254

> <glide emodel>
-56.9729

> <glide gscore>
-6.06254

> <tautomer probability>
1

> <Source File>
glide-dock_SP_2_pv.maegz

> <Source Path>
C:\Users\yujie\Desktop\FEPs\bace\docking\glide-dock_SP_2

> <entry id>
4413

> <job name>
glide-dock_SP_2

> <subgroup title>
glide-dock_SP_2_pv

> <subgroupid>
glide-dock_SP_2_pv

$$$$
