lig14
                    3D
 Schrodinger Suite 2020-3.
 46 48  0  0  1  0            999 V2000
   13.7622   14.4999   10.0171 C   0  0  0  0  0  0
   14.7086   15.3733   10.7332 N   0  0  2  0  0  0
   14.1854   16.2100   12.1722 S   0  0  0  0  0  0
   13.5084   15.2335   13.0286 O   0  0  0  0  0  0
   15.3214   16.9991   12.6602 O   0  0  0  0  0  0
   12.9542   17.3598   11.5821 C   0  0  0  0  0  0
   11.5904   17.1080   11.7558 C   0  0  0  0  0  0
   10.6522   18.0194   11.2734 C   0  0  0  0  0  0
   11.0737   19.1863   10.6338 C   0  0  0  0  0  0
   12.4393   19.4629   10.4860 C   0  0  0  0  0  0
   12.9331   20.6005    9.8288 N   0  0  0  0  0  0
   12.4111   21.8734    9.5747 C   0  0  0  0  0  0
   11.2506   22.3733   10.1798 C   0  0  0  0  0  0
   10.8229   23.6528    9.7988 C   0  0  0  0  0  0
    9.6460   24.2511   10.2671 N   0  0  0  0  0  0
    8.5727   23.7646   11.0287 C   0  0  0  0  0  0
    7.8515   24.6812   11.7941 C   0  0  0  0  0  0
    6.8112   24.2472   12.6120 C   0  0  0  0  0  0
    6.4801   22.8850   12.6667 C   0  0  0  0  0  0
    5.5093   22.3511   13.4877 O   0  0  0  0  0  0
    4.6688   23.2289   14.2277 C   0  0  0  0  0  0
    7.1641   21.9831   11.8549 C   0  0  0  0  0  0
    8.1941   22.4185   11.0289 C   0  0  0  0  0  0
   11.5571   24.4239    8.9597 N   0  0  0  0  0  0
   12.6957   23.8770    8.4708 C   0  0  0  0  0  0
   13.1518   22.6259    8.7221 N   0  0  0  0  0  0
   13.3698   18.5279   10.9408 C   0  0  0  0  0  0
   14.3092   13.7644    9.4287 H   0  0  0  0  0  0
   13.1589   15.1054    9.3415 H   0  0  0  0  0  0
   13.1093   13.9905   10.7260 H   0  0  0  0  0  0
   15.4500   15.8315   10.1878 H   0  0  0  0  0  0
   11.2533   16.2081   12.2521 H   0  0  0  0  0  0
    9.5977   17.8173   11.3900 H   0  0  0  0  0  0
   10.3242   19.8487   10.2335 H   0  0  0  0  0  0
   13.8783   20.5074    9.4902 H   0  0  0  0  0  0
   10.7300   21.8122   10.9340 H   0  0  0  0  0  0
    9.5938   25.2362   10.0566 H   0  0  0  0  0  0
    8.1129   25.7293   11.7861 H   0  0  0  0  0  0
    6.2918   24.9777   13.2125 H   0  0  0  0  0  0
    3.9219   22.6427   14.7630 H   0  0  0  0  0  0
    5.2353   23.7982   14.9659 H   0  0  0  0  0  0
    4.1356   23.9196   13.5720 H   0  0  0  0  0  0
    6.8926   20.9378   11.8662 H   0  0  0  0  0  0
    8.6777   21.6990   10.3883 H   0  0  0  0  0  0
   13.2970   24.5024    7.8290 H   0  0  0  0  0  0
   14.4250   18.7078   10.8025 H   0  0  0  0  0  0
  1  2  1  0  0  0
  1 28  1  0  0  0
  1 29  1  0  0  0
  1 30  1  0  0  0
  2  3  1  0  0  0
  2 31  1  0  0  0
  3  4  2  0  0  0
  3  5  2  0  0  0
  3  6  1  0  0  0
  6 27  1  0  0  0
  6  7  2  0  0  0
  7  8  1  0  0  0
  7 32  1  0  0  0
  8  9  2  0  0  0
  8 33  1  0  0  0
  9 10  1  0  0  0
  9 34  1  0  0  0
 10 11  1  0  0  0
 10 27  2  0  0  0
 11 12  1  0  0  0
 11 35  1  0  0  0
 12 26  1  0  0  0
 12 13  2  0  0  0
 13 14  1  0  0  0
 13 36  1  0  0  0
 14 15  1  0  0  0
 14 24  2  0  0  0
 15 16  1  0  0  0
 15 37  1  0  0  0
 16 23  1  0  0  0
 16 17  2  0  0  0
 17 18  1  0  0  0
 17 38  1  0  0  0
 18 19  2  0  0  0
 18 39  1  0  0  0
 19 20  1  0  0  0
 19 22  1  0  0  0
 20 21  1  0  0  0
 21 40  1  0  0  0
 21 41  1  0  0  0
 21 42  1  0  0  0
 22 23  2  0  0  0
 22 43  1  0  0  0
 23 44  1  0  0  0
 24 25  1  0  0  0
 25 26  2  0  0  0
 25 45  1  0  0  0
 27 46  1  0  0  0
M  END
> <s_m_source_file>
/home/user-home/yujie/0_PBCNetv2/data/0_0_high_sim/0_noncov/Sries46192/ligprep_input.csv

> <i_m_source_file_index>
15

> <i_lp_mmshare_version>
51139

> <i_f3d_flags>
0

> <s_epik_input>
W0NIM11bTkhdUyg9TykoPU8pYzFbY0hdW2NIXVtjSF1jKFtjSF0xKVtOSF1jMltjSF1jKG5bY0hdbjIpW05IXWMzW2NIXVtjSF1jKE9bQ0gzXSlbY0hdW2NIXTM=

> <s_epik_cmdline>
J2VwaWtfcHl0aG9uJywgJy1waHQnLCAnMi4wJywgJy1waCcsICc3LjQnLCAnLXRuJywgJzgnLCAnLW1hJywgJzIwMCcsICctaW1hZScsICc8aW5maWxlLm1hZT4nLCAnLW9tYWUnLCAnPG91dGZpbGUubWFlPic=

> <r_lp_tautomer_probability>
1

> <r_epik_Ionization_Penalty>
  0.0001

> <r_epik_Ionization_Penalty_Charging>
  0.0000

> <r_epik_Ionization_Penalty_Neutral>
  0.0001

> <r_epik_State_Penalty>
 -0.0000

> <r_epik_Charging_Adjusted_Penalty>
0

> <i_epik_Tot_Q>
0

> <i_epik_Tot_abs_Q>
0

> <s_lp_Force_Field>
OPLS3e

> <r_lp_Energy>
37.3303

> <b_lp_Chiralities_Consistent>
1

> <s_lp_Variant>
lig14-1

> <s_i_glide_gridfile>
Sries38428-001-gridgen

> <i_i_glide_lignum>
17

> <i_i_glide_rotatable_bonds>
7

> <r_i_docking_score>
-6.62460234468017

> <r_i_glide_ligand_efficiency>
-0.245355642395562

> <r_i_glide_ligand_efficiency_sa>
-0.736066926378033

> <r_i_glide_ligand_efficiency_ln>
-1.54209821073627

> <r_i_glide_gscore>
-6.62460234468017

> <r_i_glide_lipo>
-2.9607294566231

> <r_i_glide_hbond>
-0.32

> <r_i_glide_metal>
-0

> <r_i_glide_rewards>
-1.24425219662892

> <r_i_glide_evdw>
-44.5504188537598

> <r_i_glide_ecoul>
-3.35560417175293

> <r_i_glide_erotb>
0.654698584769554

> <r_i_glide_esite>
-0.0234577077467722

> <r_i_glide_emodel>
-60.7086179389318

> <r_i_glide_energy>
-47.9060230255127

> <r_i_glide_einternal>
14.893383026123

> <i_i_glide_confnum>
118

> <i_i_glide_posenum>
220

> <r_i_glide_eff_state_penalty>
-0

$$$$
