lig8
                    3D
 Schrodinger Suite 2020-3.
 46 48  0  0  1  0            999 V2000
   14.7851   16.1374   13.0244 C   0  0  0  0  0  0
   14.8663   16.6934   11.6650 N   0  0  2  0  0  0
   13.5264   16.5132   10.5456 S   0  0  0  0  0  0
   13.9084   17.1865    9.3005 O   0  0  0  0  0  0
   13.1106   15.1052   10.5471 O   0  0  0  0  0  0
   12.1949   17.4682   11.2692 C   0  0  0  0  0  0
   11.2448   16.8479   12.0835 C   0  0  0  0  0  0
   10.2019   17.5950   12.6277 C   0  0  0  0  0  0
   10.1069   18.9617   12.3628 C   0  0  0  0  0  0
   11.0500   19.5990   11.5498 C   0  0  0  0  0  0
   10.8963   20.9816   11.3395 N   0  0  0  0  0  0
   11.4557   21.8906   10.4275 C   0  0  0  0  0  0
   11.1099   23.2377   10.5580 C   0  0  0  0  0  0
   11.7058   24.1495    9.6745 C   0  0  0  0  0  0
   11.5455   25.5330    9.7996 N   0  0  0  0  0  0
   10.6609   26.2978   10.5777 C   0  0  0  0  0  0
    9.3206   25.9181   10.7130 C   0  0  0  0  0  0
    8.4396   26.6948   11.4618 C   0  0  0  0  0  0
    8.8929   27.8579   12.0800 C   0  0  0  0  0  0
   10.2260   28.2450   11.9506 C   0  0  0  0  0  0
   11.1271   27.4737   11.1951 C   0  0  0  0  0  0
   12.4622   27.8047   11.0269 O   0  0  0  0  0  0
   13.0054   28.9253   11.7169 C   0  0  0  0  0  0
   12.5662   23.7491    8.7040 N   0  0  0  0  0  0
   12.8240   22.4214    8.6371 C   0  0  0  0  0  0
   12.3142   21.4707    9.4599 N   0  0  0  0  0  0
   12.1030   18.8409   11.0172 C   0  0  0  0  0  0
   14.2825   15.1693   13.0099 H   0  0  0  0  0  0
   14.2327   16.8273   13.6639 H   0  0  0  0  0  0
   15.7921   16.0262   13.4286 H   0  0  0  0  0  0
   15.4861   17.4927   11.5121 H   0  0  0  0  0  0
   11.3036   15.7884   12.2900 H   0  0  0  0  0  0
    9.4656   17.1074   13.2519 H   0  0  0  0  0  0
    9.2889   19.5223   12.7914 H   0  0  0  0  0  0
   10.1937   21.4061   11.9264 H   0  0  0  0  0  0
   10.4590   23.5652   11.3545 H   0  0  0  0  0  0
   12.2200   26.0776    9.2804 H   0  0  0  0  0  0
    8.9511   25.0287   10.2235 H   0  0  0  0  0  0
    7.4035   26.4029   11.5533 H   0  0  0  0  0  0
    8.2080   28.4638   12.6566 H   0  0  0  0  0  0
   10.5423   29.1543   12.4405 H   0  0  0  0  0  0
   14.0740   28.9894   11.5106 H   0  0  0  0  0  0
   12.5470   29.8574   11.3861 H   0  0  0  0  0  0
   12.8879   28.8303   12.7975 H   0  0  0  0  0  0
   13.5004   22.0924    7.8619 H   0  0  0  0  0  0
   12.8645   19.2987   10.4074 H   0  0  0  0  0  0
  1  2  1  0  0  0
  1 28  1  0  0  0
  1 29  1  0  0  0
  1 30  1  0  0  0
  2  3  1  0  0  0
  2 31  1  0  0  0
  3  4  2  0  0  0
  3  5  2  0  0  0
  3  6  1  0  0  0
  6 27  1  0  0  0
  6  7  2  0  0  0
  7  8  1  0  0  0
  7 32  1  0  0  0
  8  9  2  0  0  0
  8 33  1  0  0  0
  9 10  1  0  0  0
  9 34  1  0  0  0
 10 11  1  0  0  0
 10 27  2  0  0  0
 11 12  1  0  0  0
 11 35  1  0  0  0
 12 26  1  0  0  0
 12 13  2  0  0  0
 13 14  1  0  0  0
 13 36  1  0  0  0
 14 15  1  0  0  0
 14 24  2  0  0  0
 15 16  1  0  0  0
 15 37  1  0  0  0
 16 21  1  0  0  0
 16 17  2  0  0  0
 17 18  1  0  0  0
 17 38  1  0  0  0
 18 19  2  0  0  0
 18 39  1  0  0  0
 19 20  1  0  0  0
 19 40  1  0  0  0
 20 21  2  0  0  0
 20 41  1  0  0  0
 21 22  1  0  0  0
 22 23  1  0  0  0
 23 42  1  0  0  0
 23 43  1  0  0  0
 23 44  1  0  0  0
 24 25  1  0  0  0
 25 26  2  0  0  0
 25 45  1  0  0  0
 27 46  1  0  0  0
M  END
> <s_m_source_file>
/home/user-home/yujie/0_PBCNetv2/data/0_0_high_sim/0_noncov/Sries46192/ligprep_input.csv

> <i_m_source_file_index>
9

> <i_lp_mmshare_version>
51139

> <i_f3d_flags>
0

> <s_epik_input>
W0NIM11bTkhdUyg9TykoPU8pYzFbY0hdW2NIXVtjSF1jKFtjSF0xKVtOSF1jMltjSF1jKG5bY0hdbjIpW05IXWMzW2NIXVtjSF1bY0hdW2NIXWMzT1tDSDNd

> <s_epik_cmdline>
J2VwaWtfcHl0aG9uJywgJy1waHQnLCAnMi4wJywgJy1waCcsICc3LjQnLCAnLXRuJywgJzgnLCAnLW1hJywgJzIwMCcsICctaW1hZScsICc8aW5maWxlLm1hZT4nLCAnLW9tYWUnLCAnPG91dGZpbGUubWFlPic=

> <r_lp_tautomer_probability>
1

> <r_epik_Ionization_Penalty>
  0.0001

> <r_epik_Ionization_Penalty_Charging>
  0.0000

> <r_epik_Ionization_Penalty_Neutral>
  0.0001

> <r_epik_State_Penalty>
 -0.0000

> <r_epik_Charging_Adjusted_Penalty>
0

> <i_epik_Tot_Q>
0

> <i_epik_Tot_abs_Q>
0

> <s_lp_Force_Field>
OPLS3e

> <r_lp_Energy>
37.4631

> <b_lp_Chiralities_Consistent>
1

> <s_lp_Variant>
lig8-1

> <s_i_glide_gridfile>
Sries38428-001-gridgen

> <i_i_glide_lignum>
11

> <i_i_glide_rotatable_bonds>
7

> <r_i_docking_score>
-6.06974737608445

> <r_i_glide_ligand_efficiency>
-0.224805458373498

> <r_i_glide_ligand_efficiency_sa>
-0.674416374379572

> <r_i_glide_ligand_efficiency_ln>
-1.41293712154626

> <r_i_glide_gscore>
-6.06974737608445

> <r_i_glide_lipo>
-2.48779551941186

> <r_i_glide_hbond>
0

> <r_i_glide_metal>
-0

> <r_i_glide_rewards>
-1.44077830151142

> <r_i_glide_evdw>
-46.1532936096191

> <r_i_glide_ecoul>
-3.25471639633179

> <r_i_glide_erotb>
0.654698584769554

> <r_i_glide_esite>
0

> <r_i_glide_emodel>
-65.9712456699962

> <r_i_glide_energy>
-49.4080100059509

> <r_i_glide_einternal>
7.15942049026489

> <i_i_glide_confnum>
314

> <i_i_glide_posenum>
127

> <r_i_glide_eff_state_penalty>
-0

$$$$
