lig_cdk8_35
                    3D
 Schrodinger Suite 2020-3.
 50 54  0  0  1  0            999 V2000
    0.2902   13.9753   -4.3397 C   0  0  0  0  0  0
   -0.4747   13.1656   -5.2700 N   0  0  0  0  0  0
   -1.8357   13.0861   -5.4035 C   0  0  0  0  0  0
   -2.0789   12.1695   -6.4193 C   0  0  0  0  0  0
   -3.3937   11.6781   -6.9283 C   0  0  0  0  0  0
   -4.5628   12.3960   -6.6620 C   0  0  0  0  0  0
   -5.7980   11.8942   -7.0602 C   0  0  0  0  0  0
   -5.8771   10.6706   -7.7296 C   0  0  0  0  0  0
   -7.2390   10.0821   -8.0802 C   0  0  0  0  0  0
   -7.4731    9.8389   -9.5624 C   0  0  0  0  0  0
   -8.1153    8.7644   -9.9528 N   0  0  0  0  0  0
   -8.2918    8.8507  -11.2819 N   0  0  0  0  0  0
   -7.7604   10.0165  -11.7923 C   0  0  0  0  0  0
   -7.7526   10.5619  -13.0765 C   0  0  0  0  0  0
   -7.0458   11.7529  -13.2518 C   0  0  0  0  0  0
   -6.3652   12.3939  -12.2054 C   0  0  0  0  0  0
   -5.5691   13.6526  -12.5021 C   0  0  0  0  0  0
   -5.8734   14.3637  -13.4629 O   0  0  0  0  0  0
   -4.5065   13.9565  -11.7240 N   0  0  0  0  0  0
   -3.5950   13.1081  -10.9033 C   0  0  0  0  0  0
   -2.5068   14.1284  -11.2658 C   0  0  0  0  0  0
   -1.6870   14.5961  -10.2171 O   0  0  0  0  0  0
   -3.5603   15.1024  -11.8131 C   0  0  0  0  0  0
   -6.4585   11.8682  -10.9050 C   0  0  0  0  0  0
   -7.1546   10.6668  -10.6909 C   0  0  0  0  0  0
   -4.7092    9.9648   -8.0241 C   0  0  0  0  0  0
   -3.4726   10.4692   -7.6268 C   0  0  0  0  0  0
   -0.7838   11.8011   -6.8271 C   0  0  0  0  0  0
    0.1716   12.3867   -6.1420 N   0  0  0  0  0  0
   -8.8070    8.1309  -11.7761 H   0  0  0  0  0  0
   -0.3773   14.4443   -3.6164 H   0  0  0  0  0  0
    1.0061   13.3453   -3.8087 H   0  0  0  0  0  0
    0.8248   14.7490   -4.8919 H   0  0  0  0  0  0
   -2.4934   13.6570   -4.7647 H   0  0  0  0  0  0
   -4.5227   13.3329   -6.1254 H   0  0  0  0  0  0
   -6.6901   12.4527   -6.8261 H   0  0  0  0  0  0
   -8.0154   10.7521   -7.7087 H   0  0  0  0  0  0
   -7.3546    9.1543   -7.5167 H   0  0  0  0  0  0
   -8.2620   10.0866  -13.9021 H   0  0  0  0  0  0
   -7.0136   12.1738  -14.2479 H   0  0  0  0  0  0
   -3.3362   12.1467  -11.3491 H   0  0  0  0  0  0
   -3.8544   13.0710   -9.8444 H   0  0  0  0  0  0
   -1.8316   13.7579  -12.0404 H   0  0  0  0  0  0
   -1.0137   15.1632  -10.6018 H   0  0  0  0  0  0
   -3.8218   15.9327  -11.1572 H   0  0  0  0  0  0
   -3.2796   15.3948  -12.8239 H   0  0  0  0  0  0
   -6.0012   12.3705  -10.0664 H   0  0  0  0  0  0
   -4.7597    9.0107   -8.5277 H   0  0  0  0  0  0
   -2.5805    9.8944   -7.8278 H   0  0  0  0  0  0
   -0.5466   11.0951   -7.6116 H   0  0  0  0  0  0
  1  2  1  0  0  0
  1 31  1  0  0  0
  1 32  1  0  0  0
  1 33  1  0  0  0
  2 29  1  0  0  0
  2  3  1  0  0  0
  3  4  2  0  0  0
  3 34  1  0  0  0
  4  5  1  0  0  0
  4 28  1  0  0  0
  5 27  1  0  0  0
  5  6  2  0  0  0
  6  7  1  0  0  0
  6 35  1  0  0  0
  7  8  2  0  0  0
  7 36  1  0  0  0
  8  9  1  0  0  0
  8 26  1  0  0  0
  9 10  1  0  0  0
  9 37  1  0  0  0
  9 38  1  0  0  0
 10 25  1  0  0  0
 10 11  2  0  0  0
 11 12  1  0  0  0
 12 30  1  0  0  0
 12 13  1  0  0  0
 13 25  1  0  0  0
 13 14  2  0  0  0
 14 15  1  0  0  0
 14 39  1  0  0  0
 15 16  2  0  0  0
 15 40  1  0  0  0
 16 17  1  0  0  0
 16 24  1  0  0  0
 17 18  2  0  0  0
 17 19  1  0  0  0
 19 23  1  0  0  0
 19 20  1  0  0  0
 20 21  1  0  0  0
 20 41  1  0  0  0
 20 42  1  0  0  0
 21 22  1  0  0  0
 21 23  1  0  0  0
 21 43  1  0  0  0
 22 44  1  0  0  0
 23 45  1  0  0  0
 23 46  1  0  0  0
 24 25  2  0  0  0
 24 47  1  0  0  0
 26 27  2  0  0  0
 26 48  1  0  0  0
 27 49  1  0  0  0
 28 29  2  0  0  0
 28 50  1  0  0  0
M  END
> <s_m_source_file>
/home/user-home/yujie/0_PBCNetv2/data/FEP/cdk8/inp_ligprep.csv

> <i_m_source_file_index>
16

> <i_lp_mmshare_version>
51139

> <i_f3d_flags>
0

> <s_epik_input>
W0NIM11uMVtjSF1jKFtjSF1uMSktYzJbY0hdW2NIXWMoW2NIXVtjSF0yKVtDSDJdYyhuW25IXTMpYyhjMzQpW2NIXWMoW2NIXVtjSF00KUMoPU8pTjVbQ0gyXVtDSF0oW09IXSlbQ0gyXTU=

> <s_epik_cmdline>
J2VwaWtfcHl0aG9uJywgJy1waHQnLCAnMi4wJywgJy1waCcsICc3LjQnLCAnLXRuJywgJzgnLCAnLW1hJywgJzIwMCcsICctaW1hZScsICc8aW5maWxlLm1hZT4nLCAnLW9tYWUnLCAnPG91dGZpbGUubWFlPic=

> <r_lp_tautomer_probability>
0.980392

> <r_epik_Ionization_Penalty>
  0.0001

> <r_epik_Ionization_Penalty_Charging>
  0.0000

> <r_epik_Ionization_Penalty_Neutral>
  0.0001

> <r_epik_State_Penalty>
  0.0090

> <r_epik_Charging_Adjusted_Penalty>
0.00904526

> <i_epik_Tot_Q>
0

> <i_epik_Tot_abs_Q>
0

> <s_lp_Force_Field>
OPLS3e

> <r_lp_Energy>
26.8746

> <b_lp_Chiralities_Consistent>
1

> <s_lp_Variant>
lig_cdk8_35-1

> <s_i_glide_gridfile>
cdk8-001-gridgen

> <i_i_glide_lignum>
33

> <i_i_glide_rotatable_bonds>
6

> <r_i_docking_score>
-9.6479477563769

> <r_i_glide_ligand_efficiency>
-0.332687853668169

> <r_i_glide_ligand_efficiency_sa>
-1.02212248937876

> <r_i_glide_ligand_efficiency_ln>
-2.20913538536426

> <r_i_glide_gscore>
-9.6569930163769

> <r_i_glide_lipo>
-3.82480179041598

> <r_i_glide_hbond>
-0.491632959335021

> <r_i_glide_metal>
-0

> <r_i_glide_rewards>
-2.40982714999576

> <r_i_glide_evdw>
-50.2630004882812

> <r_i_glide_ecoul>
-5.81098556518555

> <r_i_glide_erotb>
0.454066742561755

> <r_i_glide_esite>
0

> <r_i_glide_emodel>
-77.4327538240237

> <r_i_glide_energy>
-56.0739860534668

> <r_i_glide_einternal>
13.5449628829956

> <i_i_glide_confnum>
11

> <i_i_glide_posenum>
307

> <r_i_glide_eff_state_penalty>
0.00904526

$$$$
