lig_cdk8_27
                    3D
 Schrodinger Suite 2024-1.
 53 56  0  0  1  0            999 V2000
   -1.5882   12.0620  -12.2002 C   0  0  0  0  0  0
   -3.0436   12.4234  -11.9502 C   0  0  0  0  0  0
   -3.9159   11.5643  -12.0238 O   0  0  0  0  0  0
   -3.2711   13.7026  -11.6244 N   0  0  0  0  0  0
   -4.5481   14.2760  -11.2049 C   0  0  0  0  0  0
   -5.5564   14.5802  -12.3457 C   0  0  0  0  0  0
   -6.4910   13.5633  -12.8571 N   0  0  0  0  0  0
   -6.9140   12.3321  -12.3236 C   0  0  0  0  0  0
   -7.4079   11.4131  -13.2519 C   0  0  0  0  0  0
   -7.9019   10.1615  -12.8860 C   0  0  0  0  0  0
   -7.8683    9.8424  -11.5322 C   0  0  0  0  0  0
   -8.2456    8.7124  -10.8430 N   0  0  0  0  0  0
   -8.0396    8.8456   -9.5215 N   0  0  0  0  0  0
   -7.5616   10.0501   -9.3119 C   0  0  0  0  0  0
   -7.3058   10.5368   -7.8959 C   0  0  0  0  0  0
   -5.9063   11.0966   -7.6549 C   0  0  0  0  0  0
   -5.7594   12.3560   -7.0713 C   0  0  0  0  0  0
   -4.4919   12.8501   -6.7794 C   0  0  0  0  0  0
   -3.3570   12.0863   -7.0633 C   0  0  0  0  0  0
   -2.0080   12.6029   -6.6858 C   0  0  0  0  0  0
   -1.5988   13.9338   -6.4845 C   0  0  0  0  0  0
   -0.3470   14.0484   -6.1004 N   0  0  0  0  0  0
    0.1092   12.7916   -6.0739 N   0  0  0  0  0  0
    1.4665   12.5315   -5.6329 C   0  0  0  0  0  0
   -0.8523   11.8805   -6.4220 C   0  0  0  0  0  0
   -3.5024   10.8314   -7.6660 C   0  0  0  0  0  0
   -4.7724   10.3384   -7.9613 C   0  0  0  0  0  0
   -7.4024   10.7510  -10.5545 C   0  0  0  0  0  0
   -6.9527   12.0208  -10.9584 C   0  0  0  0  0  0
   -8.6389    7.8615  -11.2269 H   0  0  0  0  0  0
   -1.0853   11.9985  -11.2335 H   0  0  0  0  0  0
   -1.0886   12.8063  -12.8212 H   0  0  0  0  0  0
   -1.4883   11.0997  -12.7015 H   0  0  0  0  0  0
   -2.4801   14.3311  -11.6304 H   0  0  0  0  0  0
   -4.9439   13.6849  -10.3891 H   0  0  0  0  0  0
   -4.3078   15.2258  -10.7251 H   0  0  0  0  0  0
   -6.1934   15.4050  -12.0241 H   0  0  0  0  0  0
   -4.9897   14.9644  -13.1951 H   0  0  0  0  0  0
   -7.0073   13.8349  -13.6800 H   0  0  0  0  0  0
   -7.4149   11.6688  -14.3028 H   0  0  0  0  0  0
   -8.2890    9.4745  -13.6231 H   0  0  0  0  0  0
   -8.0455   11.2975   -7.6407 H   0  0  0  0  0  0
   -7.4564    9.7250   -7.1811 H   0  0  0  0  0  0
   -6.6258   12.9503   -6.8253 H   0  0  0  0  0  0
   -4.3996   13.8172   -6.3077 H   0  0  0  0  0  0
   -2.2214   14.8088   -6.6032 H   0  0  0  0  0  0
    1.7936   11.5641   -6.0081 H   0  0  0  0  0  0
    2.1378   13.3007   -6.0178 H   0  0  0  0  0  0
    1.4987   12.5269   -4.5445 H   0  0  0  0  0  0
   -0.6420   10.8193   -6.4294 H   0  0  0  0  0  0
   -2.6348   10.2273   -7.8886 H   0  0  0  0  0  0
   -4.8760    9.3599   -8.4075 H   0  0  0  0  0  0
   -6.6759   12.7325  -10.2081 H   0  0  0  0  0  0
  1  2  1  0  0  0
  1 31  1  0  0  0
  1 32  1  0  0  0
  1 33  1  0  0  0
  2  3  2  0  0  0
  2  4  1  0  0  0
  4  5  1  0  0  0
  4 34  1  0  0  0
  5  6  1  0  0  0
  5 35  1  0  0  0
  5 36  1  0  0  0
  6  7  1  0  0  0
  6 37  1  0  0  0
  6 38  1  0  0  0
  7  8  1  0  0  0
  7 39  1  0  0  0
  8 29  1  0  0  0
  8  9  2  0  0  0
  9 10  1  0  0  0
  9 40  1  0  0  0
 10 11  2  0  0  0
 10 41  1  0  0  0
 11 28  1  0  0  0
 11 12  1  0  0  0
 12 30  1  0  0  0
 12 13  1  0  0  0
 13 14  2  0  0  0
 14 15  1  0  0  0
 14 28  1  0  0  0
 15 16  1  0  0  0
 15 42  1  0  0  0
 15 43  1  0  0  0
 16 27  1  0  0  0
 16 17  2  0  0  0
 17 18  1  0  0  0
 17 44  1  0  0  0
 18 19  2  0  0  0
 18 45  1  0  0  0
 19 20  1  0  0  0
 19 26  1  0  0  0
 20 25  2  0  0  0
 20 21  1  0  0  0
 21 22  2  0  0  0
 21 46  1  0  0  0
 22 23  1  0  0  0
 23 24  1  0  0  0
 23 25  1  0  0  0
 24 47  1  0  0  0
 24 48  1  0  0  0
 24 49  1  0  0  0
 25 50  1  0  0  0
 26 27  2  0  0  0
 26 51  1  0  0  0
 27 52  1  0  0  0
 28 29  2  0  0  0
 29 53  1  0  0  0
M  END
> <Tot Q>
0

> <Source File Index>
45

> <i_f3d_flags>
0

> <subgroup collapsed>
0

> <Ionization Penalty>
0.0001

> <State Penalty>
0.0077

> <docking score>
-9.41996

> <glide emodel>
-74.725

> <glide gscore>
-9.42763

> <tautomer probability>
0.983171

> <Source File>
cdk8cdk8_dock_SP_confgen_100_lib.maegz

> <Source Path>
C:\Users\yujie\Desktop\FEPs\cdk8

> <entry id>
5481

> <subgroup title>
cdk8cdk8_dock_SP_confgen_100_lib

> <subgroupid>
cdk8cdk8_dock_SP_confgen_100_lib

$$$$
