lig_cdk8_43
                    3D
 Schrodinger Suite 2020-3.
 48 52  0  0  1  0            999 V2000
   -0.5641   11.7361   -6.7563 C   0  0  0  0  0  0
   -1.9380   12.2028   -6.6656 N   0  0  0  0  0  0
   -2.2005   13.3564   -6.0204 N   0  0  0  0  0  0
   -3.5008   13.5055   -6.0206 C   0  0  0  0  0  0
   -4.1528   12.4105   -6.6592 C   0  0  0  0  0  0
   -5.4781   12.0338   -6.9159 C   0  0  0  0  0  0
   -5.7260   10.8182   -7.5646 C   0  0  0  0  0  0
   -7.1628   10.3654   -7.8147 C   0  0  0  0  0  0
   -7.4553   10.0187   -9.2661 C   0  0  0  0  0  0
   -8.1211    8.9348   -9.5860 N   0  0  0  0  0  0
   -8.2825    8.9374  -10.9231 N   0  0  0  0  0  0
   -7.7021   10.0456  -11.5061 C   0  0  0  0  0  0
   -7.6343   10.4933  -12.8249 C   0  0  0  0  0  0
   -6.8865   11.6503  -13.0654 C   0  0  0  0  0  0
   -6.2433   12.3646  -12.0417 C   0  0  0  0  0  0
   -5.4417   13.6117  -12.3833 C   0  0  0  0  0  0
   -5.8161   14.3060  -13.3340 O   0  0  0  0  0  0
   -4.3404   13.9465  -11.6492 N   0  0  0  0  0  0
   -3.5742   15.1702  -11.9492 C   0  0  0  0  0  0
   -2.1425   14.7784  -11.5876 C   0  0  0  0  0  0
   -2.3037   13.8089  -10.4439 C   0  0  0  0  0  0
   -1.2615   12.9892  -10.3542 F   0  0  0  0  0  0
   -2.4277   14.4800   -9.2957 F   0  0  0  0  0  0
   -3.5978   13.0511  -10.7343 C   0  0  0  0  0  0
   -6.4161   11.9449  -10.7136 C   0  0  0  0  0  0
   -7.1194   10.7638  -10.4407 C   0  0  0  0  0  0
   -4.6618   10.0023   -7.9590 C   0  0  0  0  0  0
   -3.3300   10.3570   -7.7342 C   0  0  0  0  0  0
   -3.0964   11.5663   -7.0753 C   0  0  0  0  0  0
   -8.7959    8.1947  -11.3825 H   0  0  0  0  0  0
   -0.4507   11.0893   -7.6247 H   0  0  0  0  0  0
    0.1150   12.5836   -6.8500 H   0  0  0  0  0  0
   -0.3186   11.1665   -5.8602 H   0  0  0  0  0  0
   -3.9566   14.3632   -5.5507 H   0  0  0  0  0  0
   -6.2877   12.6705   -6.6024 H   0  0  0  0  0  0
   -7.8382   11.1652   -7.5091 H   0  0  0  0  0  0
   -7.3789    9.5296   -7.1455 H   0  0  0  0  0  0
   -8.1314    9.9686  -13.6239 H   0  0  0  0  0  0
   -6.8072   11.9934  -14.0878 H   0  0  0  0  0  0
   -3.8786   15.9643  -11.2667 H   0  0  0  0  0  0
   -3.6066   15.4805  -12.9944 H   0  0  0  0  0  0
   -1.5165   15.6363  -11.3447 H   0  0  0  0  0  0
   -1.6476   14.2830  -12.4229 H   0  0  0  0  0  0
   -3.3363   12.1257  -11.2523 H   0  0  0  0  0  0
   -4.0672   12.8371   -9.7758 H   0  0  0  0  0  0
   -6.0288   12.5176   -9.8900 H   0  0  0  0  0  0
   -4.8722    9.0508   -8.4251 H   0  0  0  0  0  0
   -2.5198    9.7058   -8.0241 H   0  0  0  0  0  0
  1  2  1  0  0  0
  1 31  1  0  0  0
  1 32  1  0  0  0
  1 33  1  0  0  0
  2 29  1  0  0  0
  2  3  1  0  0  0
  3  4  2  0  0  0
  4  5  1  0  0  0
  4 34  1  0  0  0
  5 29  2  0  0  0
  5  6  1  0  0  0
  6  7  2  0  0  0
  6 35  1  0  0  0
  7  8  1  0  0  0
  7 27  1  0  0  0
  8  9  1  0  0  0
  8 36  1  0  0  0
  8 37  1  0  0  0
  9 26  1  0  0  0
  9 10  2  0  0  0
 10 11  1  0  0  0
 11 30  1  0  0  0
 11 12  1  0  0  0
 12 26  1  0  0  0
 12 13  2  0  0  0
 13 14  1  0  0  0
 13 38  1  0  0  0
 14 15  2  0  0  0
 14 39  1  0  0  0
 15 16  1  0  0  0
 15 25  1  0  0  0
 16 17  2  0  0  0
 16 18  1  0  0  0
 18 24  1  0  0  0
 18 19  1  0  0  0
 19 20  1  0  0  0
 19 40  1  0  0  0
 19 41  1  0  0  0
 20 21  1  0  0  0
 20 42  1  0  0  0
 20 43  1  0  0  0
 21 22  1  0  0  0
 21 23  1  0  0  0
 21 24  1  0  0  0
 24 44  1  0  0  0
 24 45  1  0  0  0
 25 26  2  0  0  0
 25 46  1  0  0  0
 27 28  2  0  0  0
 27 47  1  0  0  0
 28 29  1  0  0  0
 28 48  1  0  0  0
M  END
> <s_m_source_file>
/home/user-home/yujie/0_PBCNetv2/data/FEP/cdk8/inp_ligprep.csv

> <i_m_source_file_index>
27

> <i_lp_mmshare_version>
51139

> <i_f3d_flags>
0

> <s_epik_input>
W2NIXTFubihbQ0gzXSljKGMxMilbY0hdW2NIXWMoW2NIXTIpW0NIMl1jKG5bbkhdMyljKGMzNClbY0hdYyhbY0hdW2NIXTQpQyg9TylOKFtDSDJdNSlbQ0gyXVtDSDJdQzUoRilG

> <s_epik_cmdline>
J2VwaWtfcHl0aG9uJywgJy1waHQnLCAnMi4wJywgJy1waCcsICc3LjQnLCAnLXRuJywgJzgnLCAnLW1hJywgJzIwMCcsICctaW1hZScsICc8aW5maWxlLm1hZT4nLCAnLW9tYWUnLCAnPG91dGZpbGUubWFlPic=

> <r_lp_tautomer_probability>
0.980392

> <r_epik_Ionization_Penalty>
  0.0000

> <r_epik_Ionization_Penalty_Charging>
  0.0000

> <r_epik_Ionization_Penalty_Neutral>
  0.0000

> <r_epik_State_Penalty>
  0.0090

> <r_epik_Charging_Adjusted_Penalty>
0.00904526

> <i_epik_Tot_Q>
0

> <i_epik_Tot_abs_Q>
0

> <s_lp_Force_Field>
OPLS3e

> <r_lp_Energy>
36.5949

> <b_lp_Chiralities_Consistent>
1

> <s_lp_Variant>
lig_cdk8_43-1

> <s_i_glide_gridfile>
cdk8-001-gridgen

> <i_i_glide_lignum>
61

> <i_i_glide_rotatable_bonds>
4

> <r_i_docking_score>
-9.23706502196077

> <r_i_glide_ligand_efficiency>
-0.318519483515889

> <r_i_glide_ligand_efficiency_sa>
-0.978592767416227

> <r_i_glide_ligand_efficiency_ln>
-2.11505365827013

> <r_i_glide_gscore>
-9.24611028196077

> <r_i_glide_lipo>
-3.7438995443158

> <r_i_glide_hbond>
-0.326276929870903

> <r_i_glide_metal>
-0

> <r_i_glide_rewards>
-2.5448199225875

> <r_i_glide_evdw>
-49.4004974365234

> <r_i_glide_ecoul>
-3.31764006614685

> <r_i_glide_erotb>
0.350203956317489

> <r_i_glide_esite>
-0.0136469597558644

> <r_i_glide_emodel>
-81.6173037979814

> <r_i_glide_energy>
-52.7181375026703

> <r_i_glide_einternal>
2.67646098136902

> <i_i_glide_confnum>
76

> <i_i_glide_posenum>
171

> <r_i_glide_eff_state_penalty>
0.00904526

$$$$
