lig_cdk8_21
                    3D
 Schrodinger Suite 2020-3.
 48 52  0  0  1  0            999 V2000
   -5.7139   13.7497  -16.9759 C   0  0  0  0  0  0
   -5.7933   13.3859  -15.5723 N   0  0  0  0  0  0
   -5.0883   13.8897  -14.5091 C   0  0  0  0  0  0
   -5.3667   13.3067  -13.3679 N   0  0  0  0  0  0
   -6.2670   12.3783  -13.6554 C   0  0  0  0  0  0
   -6.8198   11.4425  -12.6257 C   0  0  0  0  0  0
   -7.8904   10.6377  -13.0227 C   0  0  0  0  0  0
   -8.4697    9.6939  -12.1877 C   0  0  0  0  0  0
   -7.9389    9.5872  -10.9098 C   0  0  0  0  0  0
   -8.2884    8.7719   -9.8690 N   0  0  0  0  0  0
   -7.5031    8.9519   -8.8074 N   0  0  0  0  0  0
   -6.5651    9.7980   -9.1526 C   0  0  0  0  0  0
   -5.3150    9.8316   -8.2917 C   0  0  0  0  0  0
   -4.7960   11.1740   -7.8156 C   0  0  0  0  0  0
   -5.3902   11.8080   -6.7235 C   0  0  0  0  0  0
   -4.7455   12.8823   -6.1154 C   0  0  0  0  0  0
   -3.5139   13.3306   -6.6052 C   0  0  0  0  0  0
   -2.7478   14.3831   -5.8796 C   0  0  0  0  0  0
   -1.7127   15.2055   -6.3576 C   0  0  0  0  0  0
   -1.2412   16.0377   -5.4565 N   0  0  0  0  0  0
   -1.9535   15.7741   -4.3575 N   0  0  0  0  0  0
   -1.6724   16.4994   -3.1327 C   0  0  0  0  0  0
   -2.8560   14.7630   -4.5496 C   0  0  0  0  0  0
   -2.9704   12.7473   -7.7530 C   0  0  0  0  0  0
   -3.6093   11.6704   -8.3562 C   0  0  0  0  0  0
   -6.8493   10.3643  -10.4508 C   0  0  0  0  0  0
   -6.2871   11.3145  -11.3286 C   0  0  0  0  0  0
   -6.5653   12.4077  -15.0197 C   0  0  0  0  0  0
   -9.0850    8.1563   -9.8372 H   0  0  0  0  0  0
   -4.8071   14.3212  -17.1726 H   0  0  0  0  0  0
   -5.7163   12.8486  -17.5899 H   0  0  0  0  0  0
   -6.5792   14.3610  -17.2365 H   0  0  0  0  0  0
   -4.3481   14.6655  -14.6539 H   0  0  0  0  0  0
   -8.2933   10.7255  -14.0200 H   0  0  0  0  0  0
   -9.2826    9.0657  -12.5184 H   0  0  0  0  0  0
   -4.5122    9.3201   -8.8240 H   0  0  0  0  0  0
   -5.4681    9.2297   -7.3926 H   0  0  0  0  0  0
   -6.3046   11.4196   -6.2988 H   0  0  0  0  0  0
   -5.1802   13.3296   -5.2334 H   0  0  0  0  0  0
   -1.3242   15.2078   -7.3656 H   0  0  0  0  0  0
   -2.4667   16.3233   -2.4063 H   0  0  0  0  0  0
   -1.6125   17.5676   -3.3432 H   0  0  0  0  0  0
   -0.7235   16.1546   -2.7203 H   0  0  0  0  0  0
   -3.4882   14.4198   -3.7435 H   0  0  0  0  0  0
   -2.0213   13.0791   -8.1476 H   0  0  0  0  0  0
   -3.1402   11.1764   -9.1954 H   0  0  0  0  0  0
   -5.4329   11.9012  -11.0238 H   0  0  0  0  0  0
   -7.2297   11.8193  -15.6363 H   0  0  0  0  0  0
  1  2  1  0  0  0
  1 30  1  0  0  0
  1 31  1  0  0  0
  1 32  1  0  0  0
  2 28  1  0  0  0
  2  3  1  0  0  0
  3  4  2  0  0  0
  3 33  1  0  0  0
  4  5  1  0  0  0
  5  6  1  0  0  0
  5 28  2  0  0  0
  6 27  1  0  0  0
  6  7  2  0  0  0
  7  8  1  0  0  0
  7 34  1  0  0  0
  8  9  2  0  0  0
  8 35  1  0  0  0
  9 26  1  0  0  0
  9 10  1  0  0  0
 10 29  1  0  0  0
 10 11  1  0  0  0
 11 12  2  0  0  0
 12 13  1  0  0  0
 12 26  1  0  0  0
 13 14  1  0  0  0
 13 36  1  0  0  0
 13 37  1  0  0  0
 14 25  1  0  0  0
 14 15  2  0  0  0
 15 16  1  0  0  0
 15 38  1  0  0  0
 16 17  2  0  0  0
 16 39  1  0  0  0
 17 18  1  0  0  0
 17 24  1  0  0  0
 18 23  2  0  0  0
 18 19  1  0  0  0
 19 20  2  0  0  0
 19 40  1  0  0  0
 20 21  1  0  0  0
 21 22  1  0  0  0
 21 23  1  0  0  0
 22 41  1  0  0  0
 22 42  1  0  0  0
 22 43  1  0  0  0
 23 44  1  0  0  0
 24 25  2  0  0  0
 24 45  1  0  0  0
 25 46  1  0  0  0
 26 27  2  0  0  0
 27 47  1  0  0  0
 28 48  1  0  0  0
M  END
> <s_m_source_file>
/home/user-home/yujie/0_PBCNetv2/data/FEP/cdk8/inp_ligprep.csv

> <i_m_source_file_index>
23

> <i_lp_mmshare_version>
51139

> <i_f3d_flags>
0

> <s_epik_input>
W0NIM11uMVtjSF1uYyhbY0hdMSktYyhbY0hdW2NIXTIpW2NIXWMoYzIzKWMobltuSF0zKVtDSDJdYzRbY0hdW2NIXWMoW2NIXVtjSF00KS1jNVtjSF1ubihbQ0gzXSlbY0hdNQ==

> <s_epik_cmdline>
J2VwaWtfcHl0aG9uJywgJy1waHQnLCAnMi4wJywgJy1waCcsICc3LjQnLCAnLXRuJywgJzgnLCAnLW1hJywgJzIwMCcsICctaW1hZScsICc8aW5maWxlLm1hZT4nLCAnLW9tYWUnLCAnPG91dGZpbGUubWFlPic=

> <r_lp_tautomer_probability>
0.980392

> <r_epik_Ionization_Penalty>
  0.1120

> <r_epik_Ionization_Penalty_Charging>
  0.1120

> <r_epik_Ionization_Penalty_Neutral>
  0.0001

> <r_epik_State_Penalty>
  0.1107

> <r_epik_Charging_Adjusted_Penalty>
0.222679

> <i_epik_Tot_Q>
0

> <i_epik_Tot_abs_Q>
0

> <s_lp_Force_Field>
OPLS3e

> <r_lp_Energy>
29.6377

> <b_lp_Chiralities_Consistent>
1

> <s_lp_Variant>
lig_cdk8_21-1

> <s_i_glide_gridfile>
cdk8-001-gridgen

> <i_i_glide_lignum>
52

> <i_i_glide_rotatable_bonds>
4

> <r_i_docking_score>
-7.01802621027397

> <r_i_glide_ligand_efficiency>
-0.25064379322407

> <r_i_glide_ligand_efficiency_sa>
-0.761102177527913

> <r_i_glide_ligand_efficiency_ln>
-1.61996650753455

> <r_i_glide_gscore>
-7.12874421027397

> <r_i_glide_lipo>
-4.07177378191032

> <r_i_glide_hbond>
-0.0684485310699295

> <r_i_glide_metal>
-0

> <r_i_glide_rewards>
-1.42355793847489

> <r_i_glide_evdw>
-42.9435501098633

> <r_i_glide_ecoul>
0.716754019260406

> <r_i_glide_erotb>
0.567828416420986

> <r_i_glide_esite>
-0.0931279726357085

> <r_i_glide_emodel>
-60.0908421033561

> <r_i_glide_energy>
-42.2267960906029

> <r_i_glide_einternal>
2.30499076843262

> <i_i_glide_confnum>
11

> <i_i_glide_posenum>
212

> <r_i_glide_eff_state_penalty>
0.110718

$$$$
