lig_cdk8_29
                    3D
 Schrodinger Suite 2020-3.
 50 54  0  0  1  0            999 V2000
    0.5433   13.6015   -4.3293 C   0  0  0  0  0  0
   -0.3285   12.9720   -5.3044 N   0  0  0  0  0  0
   -1.6927   12.8585   -5.2722 C   0  0  0  0  0  0
   -2.0547   12.1694   -6.4234 C   0  0  0  0  0  0
   -3.4133   11.7426   -6.8601 C   0  0  0  0  0  0
   -3.5670   10.6922   -7.7699 C   0  0  0  0  0  0
   -4.8398   10.2694   -8.1475 C   0  0  0  0  0  0
   -5.9684   10.9028   -7.6214 C   0  0  0  0  0  0
   -7.3847   10.4582   -7.9628 C   0  0  0  0  0  0
   -7.6130    9.9533   -9.3736 C   0  0  0  0  0  0
   -8.1311    8.7637   -9.5418 N   0  0  0  0  0  0
   -8.3265    8.5798  -10.8554 N   0  0  0  0  0  0
   -7.9556    9.6859  -11.5790 C   0  0  0  0  0  0
   -8.0420    9.9651  -12.9373 C   0  0  0  0  0  0
   -7.4708   11.1551  -13.3793 C   0  0  0  0  0  0
   -6.8646   12.0483  -12.4960 C   0  0  0  0  0  0
   -5.9349   13.4277  -13.1630 S   0  0  0  0  0  0
   -6.0330   13.3905  -14.6276 O   0  0  0  0  0  0
   -6.3063   14.6360  -12.4248 O   0  0  0  0  0  0
   -4.2842   13.0230  -12.7584 N   0  0  2  0  0  0
   -3.7838   13.0660  -11.3714 C   0  0  0  0  0  0
   -2.3927   13.6343  -11.1861 C   0  0  0  0  0  0
   -3.5919   14.4372  -10.7551 C   0  0  0  0  0  0
   -6.8857   11.8139  -11.1129 C   0  0  0  0  0  0
   -7.4217   10.6010  -10.6419 C   0  0  0  0  0  0
   -5.8110   11.9313   -6.6982 C   0  0  0  0  0  0
   -4.5438   12.3621   -6.3242 C   0  0  0  0  0  0
   -0.8258   11.9630   -7.0705 C   0  0  0  0  0  0
    0.2013   12.4375   -6.4057 N   0  0  0  0  0  0
   -8.7610    7.7329  -11.2099 H   0  0  0  0  0  0
    0.0037   13.7671   -3.3949 H   0  0  0  0  0  0
    0.8883   14.5592   -4.7234 H   0  0  0  0  0  0
    1.4029   12.9558   -4.1332 H   0  0  0  0  0  0
   -2.2648   13.2481   -4.4430 H   0  0  0  0  0  0
   -2.7010   10.1759   -8.1596 H   0  0  0  0  0  0
   -4.9436    9.4359   -8.8235 H   0  0  0  0  0  0
   -7.6610    9.7052   -7.2219 H   0  0  0  0  0  0
   -8.0655   11.2916   -7.7841 H   0  0  0  0  0  0
   -8.4934    9.2676  -13.6246 H   0  0  0  0  0  0
   -7.4730   11.3606  -14.4410 H   0  0  0  0  0  0
   -3.7986   12.3926  -13.4008 H   0  0  0  0  0  0
   -4.0858   12.2345  -10.7327 H   0  0  0  0  0  0
   -1.7506   13.1824  -10.4280 H   0  0  0  0  0  0
   -1.8261   13.9543  -12.0629 H   0  0  0  0  0  0
   -3.8633   15.3236  -11.3298 H   0  0  0  0  0  0
   -3.7954   14.5590   -9.6907 H   0  0  0  0  0  0
   -6.4395   12.5184  -10.4255 H   0  0  0  0  0  0
   -6.6855   12.3656   -6.2521 H   0  0  0  0  0  0
   -4.4496   13.1616   -5.6038 H   0  0  0  0  0  0
   -0.6876   11.4596   -8.0170 H   0  0  0  0  0  0
  1  2  1  0  0  0
  1 31  1  0  0  0
  1 32  1  0  0  0
  1 33  1  0  0  0
  2 29  1  0  0  0
  2  3  1  0  0  0
  3  4  2  0  0  0
  3 34  1  0  0  0
  4  5  1  0  0  0
  4 28  1  0  0  0
  5 27  1  0  0  0
  5  6  2  0  0  0
  6  7  1  0  0  0
  6 35  1  0  0  0
  7  8  2  0  0  0
  7 36  1  0  0  0
  8  9  1  0  0  0
  8 26  1  0  0  0
  9 10  1  0  0  0
  9 37  1  0  0  0
  9 38  1  0  0  0
 10 25  1  0  0  0
 10 11  2  0  0  0
 11 12  1  0  0  0
 12 30  1  0  0  0
 12 13  1  0  0  0
 13 25  1  0  0  0
 13 14  2  0  0  0
 14 15  1  0  0  0
 14 39  1  0  0  0
 15 16  2  0  0  0
 15 40  1  0  0  0
 16 17  1  0  0  0
 16 24  1  0  0  0
 17 18  2  0  0  0
 17 19  2  0  0  0
 17 20  1  0  0  0
 20 21  1  0  0  0
 20 41  1  0  0  0
 21 23  1  0  0  0
 21 22  1  0  0  0
 21 42  1  0  0  0
 22 23  1  0  0  0
 22 43  1  0  0  0
 22 44  1  0  0  0
 23 45  1  0  0  0
 23 46  1  0  0  0
 24 25  2  0  0  0
 24 47  1  0  0  0
 26 27  2  0  0  0
 26 48  1  0  0  0
 27 49  1  0  0  0
 28 29  2  0  0  0
 28 50  1  0  0  0
M  END
> <s_m_source_file>
/home/user-home/yujie/0_PBCNetv2/data/FEP/cdk8/inp_ligprep.csv

> <i_m_source_file_index>
12

> <i_lp_mmshare_version>
51139

> <i_f3d_flags>
0

> <s_epik_input>
W0NIM11uMVtjSF1jKFtjSF1uMSktYzJbY0hdW2NIXWMoW2NIXVtjSF0yKVtDSDJdYyhuW25IXTMpYyhjMzQpW2NIXWMoW2NIXVtjSF00KVMoPU8pKD1PKVtOSF1bQ0hdNVtDSDJdW0NIMl01

> <s_epik_cmdline>
J2VwaWtfcHl0aG9uJywgJy1waHQnLCAnMi4wJywgJy1waCcsICc3LjQnLCAnLXRuJywgJzgnLCAnLW1hJywgJzIwMCcsICctaW1hZScsICc8aW5maWxlLm1hZT4nLCAnLW9tYWUnLCAnPG91dGZpbGUubWFlPic=

> <r_lp_tautomer_probability>
0.980392

> <r_epik_Ionization_Penalty>
  0.0001

> <r_epik_Ionization_Penalty_Charging>
  0.0000

> <r_epik_Ionization_Penalty_Neutral>
  0.0001

> <r_epik_State_Penalty>
  0.0090

> <r_epik_Charging_Adjusted_Penalty>
0.00904526

> <i_epik_Tot_Q>
0

> <i_epik_Tot_abs_Q>
0

> <s_lp_Force_Field>
OPLS3e

> <r_lp_Energy>
12.7868

> <b_lp_Chiralities_Consistent>
1

> <s_lp_Variant>
lig_cdk8_29-1

> <s_i_glide_gridfile>
cdk8-001-gridgen

> <i_i_glide_lignum>
23

> <i_i_glide_rotatable_bonds>
6

> <r_i_docking_score>
-9.23940254383906

> <r_i_glide_ligand_efficiency>
-0.318600087718588

> <r_i_glide_ligand_efficiency_sa>
-0.978840409064124

> <r_i_glide_ligand_efficiency_ln>
-2.11558889150582

> <r_i_glide_gscore>
-9.24844780383906

> <r_i_glide_lipo>
-4.27709399609057

> <r_i_glide_hbond>
-0.553915238264712

> <r_i_glide_metal>
-0

> <r_i_glide_rewards>
-1.67868241346026

> <r_i_glide_evdw>
-48.8303108215332

> <r_i_glide_ecoul>
-5.29886913299561

> <r_i_glide_erotb>
0.497589755002476

> <r_i_glide_esite>
0

> <r_i_glide_emodel>
-75.0993545626746

> <r_i_glide_energy>
-54.1291799545288

> <r_i_glide_einternal>
8.35872173309326

> <i_i_glide_confnum>
100

> <i_i_glide_posenum>
230

> <r_i_glide_eff_state_penalty>
0.00904526

$$$$
