lig_cdk8_32
                    3D
 Schrodinger Suite 2020-3.
 42 45  0  0  1  0            999 V2000
    0.8022   13.7809   -4.3490 C   0  0  0  0  0  0
   -0.0354   13.0063   -5.2460 N   0  0  0  0  0  0
   -1.3949   13.0699   -5.4065 C   0  0  0  0  0  0
   -1.7311   12.1051   -6.3498 C   0  0  0  0  0  0
   -3.0905   11.7113   -6.8390 C   0  0  0  0  0  0
   -3.2614   10.5875   -7.6555 C   0  0  0  0  0  0
   -4.5389   10.1651   -8.0235 C   0  0  0  0  0  0
   -5.6609   10.8639   -7.5717 C   0  0  0  0  0  0
   -7.0724   10.3440   -7.8371 C   0  0  0  0  0  0
   -7.3807    9.9433   -9.2706 C   0  0  0  0  0  0
   -8.0407    8.8348   -9.5147 N   0  0  0  0  0  0
   -8.2848    8.7847  -10.8357 N   0  0  0  0  0  0
   -7.7627    9.8802  -11.4887 C   0  0  0  0  0  0
   -7.7890   10.2669  -12.8260 C   0  0  0  0  0  0
   -7.1026   11.4343  -13.1622 C   0  0  0  0  0  0
   -6.4166   12.2094  -12.2161 C   0  0  0  0  0  0
   -5.6558   13.4362  -12.6786 C   0  0  0  0  0  0
   -4.6860   13.8942  -11.8846 N   0  0  0  0  0  0
   -5.8877   13.9766  -13.7595 O   0  0  0  0  0  0
   -6.4492   11.8291  -10.8609 C   0  0  0  0  0  0
   -7.1207   10.6506  -10.4909 C   0  0  0  0  0  0
   -5.4899   12.0103   -6.7919 C   0  0  0  0  0  0
   -4.2152   12.4328   -6.4294 C   0  0  0  0  0  0
   -0.4774   11.5646   -6.6951 C   0  0  0  0  0  0
    0.5275   12.0807   -6.0245 N   0  0  0  0  0  0
   -8.8131    8.0200  -11.2395 H   0  0  0  0  0  0
    0.1893   14.4665   -3.7628 H   0  0  0  0  0  0
    1.3327   13.1071   -3.6741 H   0  0  0  0  0  0
    1.5244   14.3542   -4.9320 H   0  0  0  0  0  0
   -1.9892   13.7610   -4.8287 H   0  0  0  0  0  0
   -2.4074   10.0083   -7.9764 H   0  0  0  0  0  0
   -4.6548    9.2710   -8.6195 H   0  0  0  0  0  0
   -7.7855   11.1132   -7.5371 H   0  0  0  0  0  0
   -7.2415    9.5063   -7.1577 H   0  0  0  0  0  0
   -8.3009    9.6860  -13.5790 H   0  0  0  0  0  0
   -7.1008   11.7325  -14.2021 H   0  0  0  0  0  0
   -4.4264   13.3952  -11.0495 H   0  0  0  0  0  0
   -4.1454   14.6947  -12.1766 H   0  0  0  0  0  0
   -5.9579   12.4170  -10.0994 H   0  0  0  0  0  0
   -6.3433   12.5608   -6.4313 H   0  0  0  0  0  0
   -4.1133   13.3035   -5.7995 H   0  0  0  0  0  0
   -0.3084   10.7663   -7.4053 H   0  0  0  0  0  0
  1  2  1  0  0  0
  1 27  1  0  0  0
  1 28  1  0  0  0
  1 29  1  0  0  0
  2 25  1  0  0  0
  2  3  1  0  0  0
  3  4  2  0  0  0
  3 30  1  0  0  0
  4  5  1  0  0  0
  4 24  1  0  0  0
  5 23  1  0  0  0
  5  6  2  0  0  0
  6  7  1  0  0  0
  6 31  1  0  0  0
  7  8  2  0  0  0
  7 32  1  0  0  0
  8  9  1  0  0  0
  8 22  1  0  0  0
  9 10  1  0  0  0
  9 33  1  0  0  0
  9 34  1  0  0  0
 10 21  1  0  0  0
 10 11  2  0  0  0
 11 12  1  0  0  0
 12 26  1  0  0  0
 12 13  1  0  0  0
 13 21  1  0  0  0
 13 14  2  0  0  0
 14 15  1  0  0  0
 14 35  1  0  0  0
 15 16  2  0  0  0
 15 36  1  0  0  0
 16 17  1  0  0  0
 16 20  1  0  0  0
 17 18  1  0  0  0
 17 19  2  0  0  0
 18 37  1  0  0  0
 18 38  1  0  0  0
 20 21  2  0  0  0
 20 39  1  0  0  0
 22 23  2  0  0  0
 22 40  1  0  0  0
 23 41  1  0  0  0
 24 25  2  0  0  0
 24 42  1  0  0  0
M  END
> <s_m_source_file>
/home/user-home/yujie/0_PBCNetv2/data/FEP/cdk8/inp_ligprep.csv

> <i_m_source_file_index>
1

> <i_lp_mmshare_version>
51139

> <i_f3d_flags>
0

> <s_epik_input>
W0NIM11uMVtjSF1jKFtjSF1uMSktYzJbY0hdW2NIXWMoW2NIXVtjSF0yKVtDSDJdYyhuW25IXTMpYyhjMzQpW2NIXWMoW2NIXVtjSF00KUMoPU8pW05IMl0=

> <s_epik_cmdline>
J2VwaWtfcHl0aG9uJywgJy1waHQnLCAnMi4wJywgJy1waCcsICc3LjQnLCAnLXRuJywgJzgnLCAnLW1hJywgJzIwMCcsICctaW1hZScsICc8aW5maWxlLm1hZT4nLCAnLW9tYWUnLCAnPG91dGZpbGUubWFlPic=

> <r_lp_tautomer_probability>
0.980392

> <r_epik_Ionization_Penalty>
  0.0001

> <r_epik_Ionization_Penalty_Charging>
  0.0000

> <r_epik_Ionization_Penalty_Neutral>
  0.0001

> <r_epik_State_Penalty>
  0.0090

> <r_epik_Charging_Adjusted_Penalty>
0.00904526

> <i_epik_Tot_Q>
0

> <i_epik_Tot_abs_Q>
0

> <s_lp_Force_Field>
OPLS3e

> <r_lp_Energy>
28.1208

> <b_lp_Chiralities_Consistent>
1

> <s_lp_Variant>
lig_cdk8_32-1

> <s_i_glide_gridfile>
cdk8-001-gridgen

> <i_i_glide_lignum>
1

> <i_i_glide_rotatable_bonds>
4

> <r_i_docking_score>
-9.43272826590476

> <r_i_glide_ligand_efficiency>
-0.37730913063619

> <r_i_glide_ligand_efficiency_sa>
-1.10325858958615

> <r_i_glide_ligand_efficiency_ln>
-2.235839275075

> <r_i_glide_gscore>
-9.44177352590476

> <r_i_glide_lipo>
-3.64447521600298

> <r_i_glide_hbond>
-0.476308203508109

> <r_i_glide_metal>
-0

> <r_i_glide_rewards>
-2.75965355460479

> <r_i_glide_evdw>
-45.4007987976074

> <r_i_glide_ecoul>
-4.34151887893677

> <r_i_glide_erotb>
0.359931219932003

> <r_i_glide_esite>
0

> <r_i_glide_emodel>
-76.0853932326694

> <r_i_glide_energy>
-49.7423176765442

> <r_i_glide_einternal>
2.90668177604675

> <i_i_glide_confnum>
2

> <i_i_glide_posenum>
19

> <r_i_glide_eff_state_penalty>
0.00904526

$$$$
