lig_cdk8_14
                    3D
 Schrodinger Suite 2023-4.
 34 35  0  0  1  0            999 V2000
   -4.2799   15.3794  -12.2180 C   0  0  0  0  0  0
   -5.0887   14.1843  -12.0247 N   0  0  0  0  0  0
   -5.7121   13.5238  -13.0105 C   0  0  0  0  0  0
   -5.6758   13.9006  -14.1839 O   0  0  0  0  0  0
   -6.5000   12.2990  -12.6061 C   0  0  0  0  0  0
   -7.3591   11.6822  -13.5469 C   0  0  0  0  0  0
   -8.0477   10.4985  -13.2239 C   0  0  0  0  0  0
   -7.8741    9.9213  -11.9599 C   0  0  0  0  0  0
   -8.3366    8.7680  -11.3546 N   0  0  0  0  0  0
   -7.8886    8.6070  -10.0861 N   0  0  0  0  0  0
   -7.1164    9.6402   -9.8371 C   0  0  0  0  0  0
   -6.3869    9.7792   -8.5359 C   0  0  0  0  0  0
   -7.2381   10.2648   -7.3357 C   0  0  0  0  0  0
   -8.6529   10.7646   -7.6882 C   0  0  0  0  0  0
   -6.4712   11.3187   -6.5305 C   0  0  0  0  0  0
   -7.0515   10.5194  -10.9724 C   0  0  0  0  0  0
   -6.3670   11.7121  -11.3189 C   0  0  0  0  0  0
   -3.9413   15.7610  -11.2548 H   0  0  0  0  0  0
   -3.3989   15.1642  -12.8234 H   0  0  0  0  0  0
   -4.8509   16.1638  -12.7144 H   0  0  0  0  0  0
   -5.1647   13.8254  -11.0868 H   0  0  0  0  0  0
   -7.4870   12.1062  -14.5348 H   0  0  0  0  0  0
   -8.6864   10.0269  -13.9548 H   0  0  0  0  0  0
   -8.9503    8.0760  -11.7713 H   0  0  0  0  0  0
   -5.5487   10.4567   -8.6891 H   0  0  0  0  0  0
   -5.9217    8.8276   -8.2738 H   0  0  0  0  0  0
   -7.3867    9.4026   -6.6853 H   0  0  0  0  0  0
   -8.6405   11.5494   -8.4464 H   0  0  0  0  0  0
   -9.1785   11.1623   -6.8240 H   0  0  0  0  0  0
   -9.2661    9.9440   -8.0507 H   0  0  0  0  0  0
   -6.3326   12.2386   -7.0993 H   0  0  0  0  0  0
   -7.0193   11.5642   -5.6238 H   0  0  0  0  0  0
   -5.4866   10.9557   -6.2351 H   0  0  0  0  0  0
   -5.7087   12.1383  -10.5773 H   0  0  0  0  0  0
  1  2  1  0  0  0
  1 18  1  0  0  0
  1 19  1  0  0  0
  1 20  1  0  0  0
  2  3  1  0  0  0
  2 21  1  0  0  0
  3  4  2  0  0  0
  3  5  1  0  0  0
  5 17  1  0  0  0
  5  6  2  0  0  0
  6  7  1  0  0  0
  6 22  1  0  0  0
  7  8  2  0  0  0
  7 23  1  0  0  0
  8 16  1  0  0  0
  8  9  1  0  0  0
  9 10  1  0  0  0
  9 24  1  0  0  0
 10 11  2  0  0  0
 11 12  1  0  0  0
 11 16  1  0  0  0
 12 13  1  0  0  0
 12 25  1  0  0  0
 12 26  1  0  0  0
 13 14  1  0  0  0
 13 15  1  0  0  0
 13 27  1  0  0  0
 14 28  1  0  0  0
 14 29  1  0  0  0
 14 30  1  0  0  0
 15 31  1  0  0  0
 15 32  1  0  0  0
 15 33  1  0  0  0
 16 17  2  0  0  0
 17 34  1  0  0  0
M  END
> <i_epik_Tot_Q>
0

> <i_epik_Tot_abs_Q>
0

> <i_f3d_flags>
0

> <i_i_glide_confnum>
1

> <i_i_glide_lignum>
15

> <i_i_glide_posenum>
54

> <i_i_glide_rotatable_bonds>
4

> <i_lp_mmshare_version>
65135

> <i_m_Source_File_Index>
8

> <i_m_source_file_index>
8

> <b_lp_Chiralities_Consistent>
1

> <r_canvas_pIC50s>
6.08

> <r_epik_Charging_Adjusted_Penalty>
0.0117328

> <r_epik_Ionization_Penalty>
0

> <r_epik_Ionization_Penalty_Charging>
0

> <r_epik_Ionization_Penalty_Neutral>
0

> <r_epik_State_Penalty>
0.0117

> <r_i_docking_score>
-9.44544

> <r_i_glide_ecoul>
-7.70114

> <r_i_glide_eff_state_penalty>
0.0117

> <r_i_glide_einternal>
2.74195

> <r_i_glide_emodel>
-60.0787

> <r_i_glide_energy>
-39.2417

> <r_i_glide_erotb>
0.447628

> <r_i_glide_esite>
0

> <r_i_glide_evdw>
-31.5406

> <r_i_glide_gscore>
-9.45714

> <r_i_glide_hbond>
-0.692702

> <r_i_glide_ligand_efficiency>
-0.555614

> <r_i_glide_ligand_efficiency_ln>
-2.46411

> <r_i_glide_ligand_efficiency_sa>
-1.42864

> <r_i_glide_lipo>
-3.20887

> <r_i_glide_metal>
-0

> <r_i_glide_rewards>
-3.27099

> <r_lp_Energy>
14.0733

> <r_lp_tautomer_probability>
0.980392

> <s_canvas_SMILES>
CNC(=O)c1ccc2[nH]nc(CC(C)C)c2c1

> <s_canvas_chembl\_ids>
CHEMBL5719

> <s_canvas_dirnames>
test_set_fep+

> <s_canvas_pdb\_ids>
5HNB

> <s_canvas_protein\_names>
cdk8

> <s_canvas_uniprot\_ids>
P49336

> <s_epik_cmdline>
J2VwaWtfcHl0aG9uJywgJy1waCcsICc3LjAnLCAnLXRuJywgJzgnLCAnLW1hJywgJzUwMCcsICctaW1hZScsICc8aW5maWxlLm1hZT4nLCAnLW9tYWUnLCAnPG91dGZpbGUubWFlPic=

> <s_epik_input>
W0NIM11bTkhdQyg9TyljKFtjSF1bY0hdMSlbY0hdYyhjMTIpYyhuW25IXTIpW0NIMl1bQ0hdKFtDSDNdKVtDSDNd

> <s_i_glide_gridfile>
cdk8-001-gridgen

> <s_lp_Force_Field>
S-OPLS

> <s_lp_Variant>
lig_cdk8_14-1

> <s_m_Source_File>
ligprep_cdk8-out.maegz

> <s_m_Source_Path>
C:\Users\yujie\Desktop\FEP\ligprep_cdk8

> <s_m_entry_id>
13740

> <s_m_entry_name>
label.8

> <s_m_job_name>
ligprep_cdk8

> <s_m_source_file>
ligprep_cdk8.maegz

$$$$
