lig_cdk8_31
                    3D
 Schrodinger Suite 2023-4.
 53 57  0  0  1  0            999 V2000
    1.7269   13.7103   -4.3289 C   0  0  0  0  0  0
    0.7206   13.0337   -5.1186 N   0  0  0  0  0  0
   -0.6269   13.3126   -5.2238 C   0  0  0  0  0  0
   -1.1552   12.3662   -6.0560 C   0  0  0  0  0  0
   -2.5706   12.1794   -6.4373 C   0  0  0  0  0  0
   -2.9656   11.1629   -7.3397 C   0  0  0  0  0  0
   -4.3277   10.9179   -7.6150 C   0  0  0  0  0  0
   -5.3258   11.6988   -6.9925 C   0  0  0  0  0  0
   -6.8137   11.4170   -7.1422 C   0  0  0  0  0  0
   -7.2523   10.5014   -8.2454 C   0  0  0  0  0  0
   -7.8896    9.2839   -8.0962 N   0  0  0  0  0  0
   -8.2453    8.7491   -9.3128 N   0  0  0  0  0  0
   -7.7815    9.6380  -10.2086 C   0  0  0  0  0  0
   -7.8882    9.5274  -11.6051 C   0  0  0  0  0  0
   -7.3532   10.5673  -12.3975 C   0  0  0  0  0  0
   -6.7324   11.6944  -11.7961 C   0  0  0  0  0  0
   -6.2689   12.8337  -12.6582 C   0  0  0  0  0  0
   -6.9600   13.1641  -13.6227 O   0  0  0  0  0  0
   -5.1371   13.4954  -12.3249 N   0  0  0  0  0  0
   -4.8315   14.8044  -12.8881 C   0  0  0  0  0  0
   -3.7331   15.3813  -12.0097 C   0  0  0  0  0  0
   -3.0285   14.1834  -11.3783 C   0  0  2  0  0  0
   -1.8161   13.8705  -12.0237 O   0  0  0  0  0  0
   -4.0036   13.0072  -11.5266 C   0  0  0  0  0  0
   -6.6764   11.7883  -10.3837 C   0  0  0  0  0  0
   -7.1831   10.7315   -9.6132 C   0  0  0  0  0  0
   -4.9381   12.7468   -6.1344 C   0  0  0  0  0  0
   -3.5794   12.9838   -5.8619 C   0  0  0  0  0  0
   -0.0447   11.5647   -6.4409 C   0  0  0  0  0  0
    1.0760   11.9637   -5.8602 N   0  0  0  0  0  0
    1.8872   13.1647   -3.3986 H   0  0  0  0  0  0
    2.6671   13.7579   -4.8800 H   0  0  0  0  0  0
    1.4011   14.7244   -4.0972 H   0  0  0  0  0  0
   -1.0832   14.1297   -4.6855 H   0  0  0  0  0  0
   -2.2235   10.5263   -7.7993 H   0  0  0  0  0  0
   -4.5909   10.1034   -8.2743 H   0  0  0  0  0  0
   -7.3392   12.3640   -7.2241 H   0  0  0  0  0  0
   -7.1350   10.9927   -6.1923 H   0  0  0  0  0  0
   -8.0999    8.8191   -7.2232 H   0  0  0  0  0  0
   -8.3704    8.6724  -12.0574 H   0  0  0  0  0  0
   -7.4376   10.5048  -13.4733 H   0  0  0  0  0  0
   -5.7038   15.4594  -12.8926 H   0  0  0  0  0  0
   -4.4849   14.6875  -13.9152 H   0  0  0  0  0  0
   -4.1999   15.9638  -11.2173 H   0  0  0  0  0  0
   -3.0798   16.0567  -12.5556 H   0  0  0  0  0  0
   -2.8066   14.3857  -10.3291 H   0  0  0  0  0  0
   -1.3805   14.6712  -12.2953 H   0  0  0  0  0  0
   -3.5428   12.1566  -12.0325 H   0  0  0  0  0  0
   -4.2769   12.6675  -10.5326 H   0  0  0  0  0  0
   -6.2752   12.6592   -9.8880 H   0  0  0  0  0  0
   -5.6860   13.3538   -5.6450 H   0  0  0  0  0  0
   -3.3255   13.7726   -5.1698 H   0  0  0  0  0  0
   -0.0138   10.7089   -7.0978 H   0  0  0  0  0  0
  1  2  1  0  0  0
  1 31  1  0  0  0
  1 32  1  0  0  0
  1 33  1  0  0  0
  2 30  1  0  0  0
  2  3  1  0  0  0
  3  4  2  0  0  0
  3 34  1  0  0  0
  4  5  1  0  0  0
  4 29  1  0  0  0
  5 28  1  0  0  0
  5  6  2  0  0  0
  6  7  1  0  0  0
  6 35  1  0  0  0
  7  8  2  0  0  0
  7 36  1  0  0  0
  8  9  1  0  0  0
  8 27  1  0  0  0
  9 37  1  0  0  0
  9 38  1  0  0  0
  9 10  1  0  0  0
 10 26  2  0  0  0
 10 11  1  0  0  0
 11 39  1  0  0  0
 11 12  1  0  0  0
 12 13  2  0  0  0
 13 14  1  0  0  0
 13 26  1  0  0  0
 14 40  1  0  0  0
 14 15  2  0  0  0
 15 41  1  0  0  0
 15 16  1  0  0  0
 16 17  1  0  0  0
 16 25  2  0  0  0
 17 18  2  0  0  0
 17 19  1  0  0  0
 19 24  1  0  0  0
 19 20  1  0  0  0
 20 21  1  0  0  0
 20 42  1  0  0  0
 20 43  1  0  0  0
 21 22  1  0  0  0
 21 44  1  0  0  0
 21 45  1  0  0  0
 22 23  1  0  0  0
 22 24  1  0  0  0
 22 46  1  0  0  0
 23 47  1  0  0  0
 24 48  1  0  0  0
 24 49  1  0  0  0
 25 50  1  0  0  0
 25 26  1  0  0  0
 27 28  2  0  0  0
 27 51  1  0  0  0
 28 52  1  0  0  0
 29 30  2  0  0  0
 29 53  1  0  0  0
M  END
> <i_epik_Tot_Q>
0

> <i_epik_Tot_abs_Q>
0

> <i_f3d_flags>
0

> <i_i_glide_confnum>
70

> <i_i_glide_lignum>
40

> <i_i_glide_posenum>
337

> <i_i_glide_rotatable_bonds>
6

> <i_lp_mmshare_version>
65135

> <i_m_Source_File_Index>
17

> <i_m_source_file_index>
17

> <b_lp_Chiralities_Consistent>
1

> <r_canvas_pIC50s>
8.7

> <r_epik_Charging_Adjusted_Penalty>
2.32955

> <r_epik_Ionization_Penalty>
0.0002

> <r_epik_Ionization_Penalty_Charging>
0

> <r_epik_Ionization_Penalty_Neutral>
0.0002

> <r_epik_State_Penalty>
2.3296

> <r_i_docking_score>
-7.12453

> <r_i_glide_ecoul>
-6.43968

> <r_i_glide_eff_state_penalty>
2.3296

> <r_i_glide_einternal>
4.69314

> <r_i_glide_emodel>
-81.2282

> <r_i_glide_energy>
-56.4444

> <r_i_glide_erotb>
0.608493

> <r_i_glide_esite>
0

> <r_i_glide_evdw>
-50.0047

> <r_i_glide_gscore>
-9.45413

> <r_i_glide_hbond>
-0.410811

> <r_i_glide_ligand_efficiency>
-0.237484

> <r_i_glide_ligand_efficiency_ln>
-1.61877

> <r_i_glide_ligand_efficiency_sa>
-0.737919

> <r_i_glide_lipo>
-3.8205

> <r_i_glide_metal>
-0

> <r_i_glide_rewards>
-2.36513

> <r_lp_Energy>
33.6992

> <r_lp_tautomer_probability>
0.0196078

> <s_canvas_SMILES>
Cn1cc(-c2ccc(Cc3n[nH]c4ccc(C(=O)N5CCC(O)C5)cc34)cc2)cn1

> <s_canvas_chembl\_ids>
CHEMBL5719

> <s_canvas_dirnames>
test_set_fep+

> <s_canvas_pdb\_ids>
5HNB

> <s_canvas_protein\_names>
cdk8

> <s_canvas_uniprot\_ids>
P49336

> <s_epik_cmdline>
J2VwaWtfcHl0aG9uJywgJy1waCcsICc3LjAnLCAnLXRuJywgJzgnLCAnLW1hJywgJzUwMCcsICctaW1hZScsICc8aW5maWxlLm1hZT4nLCAnLW9tYWUnLCAnPG91dGZpbGUubWFlPic=

> <s_epik_input>
W0NIM11uMVtjSF1jKFtjSF1uMSktYzJbY0hdW2NIXWMoW2NIXVtjSF0yKVtDSDJdYyhuW25IXTMpYyhjMzQpW2NIXWMoW2NIXVtjSF00KUMoPU8pTjVbQ0gyXVtDSDJdW0NAQEhdKFtPSF0pW0NIMl01

> <s_i_glide_gridfile>
cdk8-001-gridgen

> <s_lp_Force_Field>
S-OPLS

> <s_lp_Variant>
lig_cdk8_31-4

> <s_m_Source_File>
ligprep_cdk8-out.maegz

> <s_m_Source_Path>
C:\Users\yujie\Desktop\FEP\ligprep_cdk8

> <s_m_entry_id>
13765

> <s_m_entry_name>
label.17

> <s_m_job_name>
ligprep_cdk8

> <s_m_source_file>
ligprep_cdk8.maegz

$$$$
