lig_cdk8_24
                    3D
 Schrodinger Suite 2020-3.
 45 48  0  0  1  0            999 V2000
   -4.3102   15.4024  -12.8068 C   0  0  0  0  0  0
   -5.1859   14.2068  -13.1638 C   0  0  0  0  0  0
   -5.4605   13.9736  -14.3422 O   0  0  0  0  0  0
   -5.5872   13.4946  -12.0971 N   0  0  0  0  0  0
   -6.3690   12.3336  -12.0135 C   0  0  0  0  0  0
   -6.9891   11.6939  -13.0988 C   0  0  0  0  0  0
   -7.7154   10.5099  -12.9393 C   0  0  0  0  0  0
   -7.7884    9.9800  -11.6486 C   0  0  0  0  0  0
   -8.3608    8.8324  -11.1425 N   0  0  0  0  0  0
   -8.2319    8.7644   -9.8048 N   0  0  0  0  0  0
   -7.5579    9.8151   -9.4081 C   0  0  0  0  0  0
   -7.3081   10.0606   -7.9280 C   0  0  0  0  0  0
   -5.9266   10.6227   -7.6008 C   0  0  0  0  0  0
   -4.7765    9.9559   -8.0264 C   0  0  0  0  0  0
   -3.5179   10.4333   -7.6710 C   0  0  0  0  0  0
   -3.3935   11.5833   -6.8845 C   0  0  0  0  0  0
   -2.0426   12.0446   -6.4375 C   0  0  0  0  0  0
   -0.7756   11.5643   -6.8223 C   0  0  0  0  0  0
    0.2228   12.1418   -6.1943 N   0  0  0  0  0  0
   -0.3602   13.0505   -5.4094 N   0  0  0  0  0  0
    0.4622   13.8556   -4.5251 C   0  0  0  0  0  0
   -1.7268   13.0317   -5.5101 C   0  0  0  0  0  0
   -4.5469   12.2654   -6.4817 C   0  0  0  0  0  0
   -5.8053   11.7845   -6.8347 C   0  0  0  0  0  0
   -7.2124   10.6297  -10.5316 C   0  0  0  0  0  0
   -6.4988   11.8183  -10.7246 C   0  0  0  0  0  0
   -8.8717    8.1156  -11.6466 H   0  0  0  0  0  0
   -4.7677   15.9667  -11.9961 H   0  0  0  0  0  0
   -4.1768   16.0725  -13.6528 H   0  0  0  0  0  0
   -3.3266   15.0737  -12.4686 H   0  0  0  0  0  0
   -5.2387   13.8183  -11.2080 H   0  0  0  0  0  0
   -6.9171   12.0990  -14.0960 H   0  0  0  0  0  0
   -8.1927   10.0289  -13.7798 H   0  0  0  0  0  0
   -8.0629   10.7544   -7.5556 H   0  0  0  0  0  0
   -7.4409    9.1399   -7.3559 H   0  0  0  0  0  0
   -4.8566    9.0495   -8.6089 H   0  0  0  0  0  0
   -2.6427    9.8830   -7.9838 H   0  0  0  0  0  0
   -0.5882   10.7723   -7.5334 H   0  0  0  0  0  0
   -0.1306   14.6661   -4.0993 H   0  0  0  0  0  0
    0.8464   13.2274   -3.7215 H   0  0  0  0  0  0
    1.2960   14.2802   -5.0856 H   0  0  0  0  0  0
   -2.3375   13.6927   -4.9124 H   0  0  0  0  0  0
   -4.4775   13.1551   -5.8737 H   0  0  0  0  0  0
   -6.6836   12.3119   -6.4972 H   0  0  0  0  0  0
   -6.0378   12.3087   -9.8795 H   0  0  0  0  0  0
  1  2  1  0  0  0
  1 28  1  0  0  0
  1 29  1  0  0  0
  1 30  1  0  0  0
  2  3  2  0  0  0
  2  4  1  0  0  0
  4  5  1  0  0  0
  4 31  1  0  0  0
  5 26  1  0  0  0
  5  6  2  0  0  0
  6  7  1  0  0  0
  6 32  1  0  0  0
  7  8  2  0  0  0
  7 33  1  0  0  0
  8 25  1  0  0  0
  8  9  1  0  0  0
  9 27  1  0  0  0
  9 10  1  0  0  0
 10 11  2  0  0  0
 11 12  1  0  0  0
 11 25  1  0  0  0
 12 13  1  0  0  0
 12 34  1  0  0  0
 12 35  1  0  0  0
 13 24  1  0  0  0
 13 14  2  0  0  0
 14 15  1  0  0  0
 14 36  1  0  0  0
 15 16  2  0  0  0
 15 37  1  0  0  0
 16 17  1  0  0  0
 16 23  1  0  0  0
 17 22  2  0  0  0
 17 18  1  0  0  0
 18 19  2  0  0  0
 18 38  1  0  0  0
 19 20  1  0  0  0
 20 21  1  0  0  0
 20 22  1  0  0  0
 21 39  1  0  0  0
 21 40  1  0  0  0
 21 41  1  0  0  0
 22 42  1  0  0  0
 23 24  2  0  0  0
 23 43  1  0  0  0
 24 44  1  0  0  0
 25 26  2  0  0  0
 26 45  1  0  0  0
M  END
> <s_m_source_file>
/home/user-home/yujie/0_PBCNetv2/data/FEP/cdk8/inp_ligprep.csv

> <i_m_source_file_index>
9

> <i_lp_mmshare_version>
51139

> <i_f3d_flags>
0

> <s_epik_input>
W0NIM11DKD1PKVtOSF1jKFtjSF1bY0hdMSlbY0hdYyhjMTIpYyhuW25IXTIpW0NIMl1jM1tjSF1bY0hdYyhbY0hdW2NIXTMpLWM0W2NIXW5uKFtDSDNdKVtjSF00

> <s_epik_cmdline>
J2VwaWtfcHl0aG9uJywgJy1waHQnLCAnMi4wJywgJy1waCcsICc3LjQnLCAnLXRuJywgJzgnLCAnLW1hJywgJzIwMCcsICctaW1hZScsICc8aW5maWxlLm1hZT4nLCAnLW9tYWUnLCAnPG91dGZpbGUubWFlPic=

> <r_lp_tautomer_probability>
0.980392

> <r_epik_Ionization_Penalty>
  0.0001

> <r_epik_Ionization_Penalty_Charging>
  0.0000

> <r_epik_Ionization_Penalty_Neutral>
  0.0001

> <r_epik_State_Penalty>
  0.0090

> <r_epik_Charging_Adjusted_Penalty>
0.00904526

> <i_epik_Tot_Q>
0

> <i_epik_Tot_abs_Q>
0

> <s_lp_Force_Field>
OPLS3e

> <r_lp_Energy>
28.2086

> <b_lp_Chiralities_Consistent>
1

> <s_lp_Variant>
lig_cdk8_24-1

> <s_i_glide_gridfile>
cdk8-001-gridgen

> <i_i_glide_lignum>
17

> <i_i_glide_rotatable_bonds>
5

> <r_i_docking_score>
-9.45964231230313

> <r_i_glide_ligand_efficiency>
-0.363832396627044

> <r_i_glide_ligand_efficiency_sa>
-1.07785204339627

> <r_i_glide_ligand_efficiency_ln>
-2.22156595742626

> <r_i_glide_gscore>
-9.46868757230313

> <r_i_glide_lipo>
-3.81998997394026

> <r_i_glide_hbond>
-0.701340306637479

> <r_i_glide_metal>
-0

> <r_i_glide_rewards>
-2.2031775897262

> <r_i_glide_evdw>
-47.2594757080078

> <r_i_glide_ecoul>
-5.51417016983032

> <r_i_glide_erotb>
0.445919608875741

> <r_i_glide_esite>
0

> <r_i_glide_emodel>
-81.111156878998

> <r_i_glide_energy>
-52.7736458778381

> <r_i_glide_einternal>
5.25163459777832

> <i_i_glide_confnum>
20

> <i_i_glide_posenum>
253

> <r_i_glide_eff_state_penalty>
0.00904526

$$$$
