Tyk2_ejm_48
                    3D
 Schrodinger Suite 2024-1.
 42 44  0  0  1  0            999 V2000
   -8.3650   -7.4373  -14.0571 O   0  0  0  0  0  0
   -7.8452   -7.3307  -15.1675 C   0  0  0  0  0  0
   -7.9827   -8.2077  -16.1816 N   0  0  0  0  0  0
   -8.7722   -9.3886  -16.2729 C   0  0  0  0  0  0
   -9.6423   -9.8573  -15.2646 C   0  0  0  0  0  0
  -10.3832  -11.0238  -15.5125 C   0  0  0  0  0  0
  -10.2910  -11.7334  -16.6553 N   0  0  0  0  0  0
   -9.4496  -11.3166  -17.6286 C   0  0  0  0  0  0
   -9.3819  -12.0946  -18.8191 N   0  0  0  0  0  0
   -8.3869  -12.2007  -19.7240 C   0  0  0  0  0  0
   -7.3668  -11.5128  -19.7217 O   0  0  0  0  0  0
   -8.5680  -13.2658  -20.8209 C   0  0  0  0  0  0
   -8.5973  -12.6719  -22.2474 C   0  0  0  0  0  0
   -7.5521  -13.4246  -23.0776 C   0  0  0  0  0  0
   -7.2923  -14.7139  -22.3091 C   0  0  0  0  0  0
   -7.4084  -14.2830  -20.8505 C   0  0  0  0  0  0
   -8.6906  -10.1286  -17.4702 C   0  0  0  0  0  0
   -6.9808   -6.1386  -15.4841 C   0  0  0  0  0  0
   -7.5227   -4.8268  -15.4338 C   0  0  0  0  0  0
   -9.1868   -4.5407  -15.0638 Cl  0  0  0  0  0  0
   -6.7092   -3.7097  -15.7056 C   0  0  0  0  0  0
   -5.3499   -3.8763  -16.0188 C   0  0  0  0  0  0
   -4.8025   -5.1688  -16.0718 C   0  0  0  0  0  0
   -5.6067   -6.2949  -15.8091 C   0  0  0  0  0  0
   -4.8535   -7.8476  -15.8667 Cl  0  0  0  0  0  0
   -7.4529   -7.9855  -17.0111 H   0  0  0  0  0  0
   -9.7759   -9.3487  -14.3230 H   0  0  0  0  0  0
  -11.0682  -11.4033  -14.7685 H   0  0  0  0  0  0
  -10.1604  -12.7264  -18.9428 H   0  0  0  0  0  0
   -9.5014  -13.8089  -20.6571 H   0  0  0  0  0  0
   -8.3863  -11.6023  -22.2733 H   0  0  0  0  0  0
   -9.5880  -12.8107  -22.6809 H   0  0  0  0  0  0
   -6.6346  -12.8373  -23.1248 H   0  0  0  0  0  0
   -7.8806  -13.6047  -24.1015 H   0  0  0  0  0  0
   -6.3246  -15.1565  -22.5467 H   0  0  0  0  0  0
   -8.0668  -15.4461  -22.5440 H   0  0  0  0  0  0
   -7.5863  -15.1309  -20.1931 H   0  0  0  0  0  0
   -6.4683  -13.8232  -20.5426 H   0  0  0  0  0  0
   -8.0460   -9.7688  -18.2568 H   0  0  0  0  0  0
   -7.1310   -2.7162  -15.6641 H   0  0  0  0  0  0
   -4.7263   -3.0149  -16.2101 H   0  0  0  0  0  0
   -3.7546   -5.2942  -16.3036 H   0  0  0  0  0  0
  1  2  2  0  0  0
  2  3  1  0  0  0
  2 18  1  0  0  0
  3  4  1  0  0  0
  3 26  1  0  0  0
  4 17  1  0  0  0
  4  5  2  0  0  0
  5  6  1  0  0  0
  5 27  1  0  0  0
  6  7  2  0  0  0
  6 28  1  0  0  0
  7  8  1  0  0  0
  8  9  1  0  0  0
  8 17  2  0  0  0
  9 10  1  0  0  0
  9 29  1  0  0  0
 10 11  2  0  0  0
 10 12  1  0  0  0
 12 16  1  0  0  0
 12 13  1  0  0  0
 12 30  1  0  0  0
 13 14  1  0  0  0
 13 31  1  0  0  0
 13 32  1  0  0  0
 14 15  1  0  0  0
 14 33  1  0  0  0
 14 34  1  0  0  0
 15 16  1  0  0  0
 15 35  1  0  0  0
 15 36  1  0  0  0
 16 37  1  0  0  0
 16 38  1  0  0  0
 17 39  1  0  0  0
 18 24  1  0  0  0
 18 19  2  0  0  0
 19 20  1  0  0  0
 19 21  1  0  0  0
 21 22  2  0  0  0
 21 40  1  0  0  0
 22 23  1  0  0  0
 22 41  1  0  0  0
 23 24  2  0  0  0
 23 42  1  0  0  0
 24 25  1  0  0  0
M  END
> <Tot Q>
0

> <flags>
0

> <Source File Index>
159

> <i_f3d_flags>
0

> <subgroup collapsed>
0

> <Ionization Penalty>
0.002

> <State Penalty>
0.0122

> <docking score>
-8.12015

> <glide emodel>
-76.8538

> <glide gscore>
-8.13235

> <Source File>
glide-dock_SP_4_pv.maegz

> <Source Path>
C:\Users\yujie\Documents\Schrodinger\glide-dock_SP_4

> <entry id>
3853

> <job name>
glide-dock_SP_4

> <subgroup title>
glide-dock_SP_4_pv

> <subgroupid>
glide-dock_SP_4_pv

$$$$
