Tyk2_ejm_55
                    3D
 Schrodinger Suite 2020-3.
 33 34  0  0  1  0            999 V2000
   -8.7578  -13.1759  -21.5570 C   0  0  0  0  0  0
   -9.3024  -12.9783  -20.2610 O   0  0  0  0  0  0
   -8.7872  -12.0583  -19.4268 C   0  0  0  0  0  0
   -7.7857  -11.3824  -19.6658 O   0  0  0  0  0  0
   -9.5867  -12.0128  -18.2933 N   0  0  0  0  0  0
   -9.5291  -11.1563  -17.1877 C   0  0  0  0  0  0
   -8.7019  -10.0243  -17.1192 C   0  0  0  0  0  0
   -8.7305   -9.2264  -15.9721 C   0  0  0  0  0  0
   -7.9160   -8.0840  -15.9912 N   0  0  0  0  0  0
   -7.6555   -7.2052  -15.0043 C   0  0  0  0  0  0
   -7.9888   -7.3234  -13.8250 O   0  0  0  0  0  0
   -6.8638   -6.0055  -15.4472 C   0  0  0  0  0  0
   -5.5094   -6.1266  -15.8285 C   0  0  0  0  0  0
   -4.6765   -7.6482  -15.8609 Cl  0  0  0  0  0  0
   -4.7867   -4.9931  -16.2016 C   0  0  0  0  0  0
   -5.3911   -3.7400  -16.2124 C   0  0  0  0  0  0
   -6.7309   -3.6167  -15.8608 C   0  0  0  0  0  0
   -7.4723   -4.7332  -15.4772 C   0  0  0  0  0  0
   -9.1399   -4.4810  -15.0623 Cl  0  0  0  0  0  0
   -9.5866   -9.5845  -14.9182 C   0  0  0  0  0  0
  -10.3875  -10.7162  -15.0637 C   0  0  0  0  0  0
  -10.3663  -11.4963  -16.1737 N   0  0  0  0  0  0
   -9.2875  -13.9853  -22.0598 H   0  0  0  0  0  0
   -8.8589  -12.2756  -22.1648 H   0  0  0  0  0  0
   -7.7010  -13.4417  -21.5045 H   0  0  0  0  0  0
  -10.3473  -12.6748  -18.2796 H   0  0  0  0  0  0
   -8.0565   -9.7507  -17.9393 H   0  0  0  0  0  0
   -7.4851   -7.8839  -16.8803 H   0  0  0  0  0  0
   -3.7455   -5.0824  -16.4769 H   0  0  0  0  0  0
   -4.8233   -2.8651  -16.4927 H   0  0  0  0  0  0
   -7.1995   -2.6458  -15.8806 H   0  0  0  0  0  0
   -9.6710   -9.0028  -14.0141 H   0  0  0  0  0  0
  -11.0674  -11.0151  -14.2772 H   0  0  0  0  0  0
  1  2  1  0  0  0
  1 23  1  0  0  0
  1 24  1  0  0  0
  1 25  1  0  0  0
  2  3  1  0  0  0
  3  4  2  0  0  0
  3  5  1  0  0  0
  5  6  1  0  0  0
  5 26  1  0  0  0
  6 22  1  0  0  0
  6  7  2  0  0  0
  7  8  1  0  0  0
  7 27  1  0  0  0
  8  9  1  0  0  0
  8 20  2  0  0  0
  9 10  1  0  0  0
  9 28  1  0  0  0
 10 11  2  0  0  0
 10 12  1  0  0  0
 12 18  1  0  0  0
 12 13  2  0  0  0
 13 14  1  0  0  0
 13 15  1  0  0  0
 15 16  2  0  0  0
 15 29  1  0  0  0
 16 17  1  0  0  0
 16 30  1  0  0  0
 17 18  2  0  0  0
 17 31  1  0  0  0
 18 19  1  0  0  0
 20 21  1  0  0  0
 20 32  1  0  0  0
 21 22  2  0  0  0
 21 33  1  0  0  0
M  END
> <s_m_source_file>
/home/user-home/yujie/0_PBCNetv2/data/FEP/Tyk2/inp_ligprep.csv

> <i_m_source_file_index>
10

> <i_lp_mmshare_version>
51139

> <i_f3d_flags>
0

> <s_epik_input>
W0NIM11PQyg9TylbTkhdYzFbY0hdYyhbY0hdW2NIXW4xKVtOSF1DKD1PKWMyYyhDbClbY0hdW2NIXVtjSF1jMkNs

> <s_epik_cmdline>
J2VwaWtfcHl0aG9uJywgJy1waHQnLCAnMi4wJywgJy1waCcsICc3LjQnLCAnLXRuJywgJzgnLCAnLW1hJywgJzIwMCcsICctaW1hZScsICc8aW5maWxlLm1hZT4nLCAnLW9tYWUnLCAnPG91dGZpbGUubWFlPic=

> <r_lp_tautomer_probability>
1

> <r_epik_Ionization_Penalty>
  0.0045

> <r_epik_Ionization_Penalty_Charging>
  0.0000

> <r_epik_Ionization_Penalty_Neutral>
  0.0045

> <r_epik_State_Penalty>
 -0.0000

> <r_epik_Charging_Adjusted_Penalty>
0

> <i_epik_Tot_Q>
0

> <i_epik_Tot_abs_Q>
0

> <s_epik_Chemistry_Notes>
This compound has an ester and may undergo hydrolysis at high or low pH.

> <s_lp_Force_Field>
OPLS3e

> <r_lp_Energy>
30.6

> <b_lp_Chiralities_Consistent>
1

> <s_lp_Variant>
Tyk2_ejm_55-1

> <s_i_glide_gridfile>
Tyk2-001-gridgen

> <i_i_glide_lignum>
11

> <i_i_glide_rotatable_bonds>
6

> <r_i_docking_score>
-7.83855981453707

> <r_i_glide_ligand_efficiency>
-0.356298173388049

> <r_i_glide_ligand_efficiency_sa>
-0.998361494245325

> <r_i_glide_ligand_efficiency_ln>
-1.91602993708912

> <r_i_glide_gscore>
-7.83855981453707

> <r_i_glide_lipo>
-3.2345447443622

> <r_i_glide_hbond>
-0.290463390254355

> <r_i_glide_metal>
-0

> <r_i_glide_rewards>
-1.81968211444211

> <r_i_glide_evdw>
-46.2095489501953

> <r_i_glide_ecoul>
-5.04071283340454

> <r_i_glide_erotb>
0.57271480704205

> <r_i_glide_esite>
0

> <r_i_glide_emodel>
-73.4949685492337

> <r_i_glide_energy>
-51.2502617835999

> <r_i_glide_einternal>
4.09143304824829

> <i_i_glide_confnum>
9

> <i_i_glide_posenum>
297

> <r_i_glide_eff_state_penalty>
-0

$$$$
