lig_shp2_Example8
                    3D
 Schrodinger Suite 2020-3.
 46 48  0  0  1  0            999 V2000
   28.2578   42.9953    4.0496 C   0  0  0  0  0  0
   27.2497   42.3747    3.0544 C   0  0  0  0  0  0
   27.8367   42.2031    1.6184 C   0  0  0  0  0  0
   28.8604   41.0598    1.5207 N   0  3  0  0  0  0
   26.0054   43.3096    3.0023 C   0  0  0  0  0  0
   24.7989   42.6698    2.2653 C   0  0  0  0  0  0
   24.4037   41.4127    2.9299 N   0  0  0  0  0  0
   23.2663   41.2773    3.7274 C   0  0  0  0  0  0
   22.0989   42.0160    3.4789 C   0  0  0  0  0  0
   20.9364   41.7829    4.1393 N   0  0  0  0  0  0
   20.9233   40.7835    5.0599 C   0  0  0  0  0  0
   19.6319   40.5613    5.7618 C   0  0  0  0  0  0
   18.5518   40.0317    5.0458 C   0  0  0  0  0  0
   17.3458   39.7534    5.6826 C   0  0  0  0  0  0
   17.2104   39.9835    7.0494 C   0  0  0  0  0  0
   18.2717   40.5161    7.7795 C   0  0  0  0  0  0
   18.0604   40.7835    9.4758 Cl  0  0  0  0  0  0
   19.4817   40.8182    7.1380 C   0  0  0  0  0  0
   20.7725   41.5537    8.0361 Cl  0  0  0  0  0  0
   22.0696   40.0085    5.2907 C   0  0  0  0  0  0
   22.0604   38.9460    6.1904 N   0  0  0  0  0  0
   23.2252   40.2451    4.6199 N   0  0  0  0  0  0
   25.5332   40.4624    2.9090 C   0  0  0  0  0  0
   26.7366   41.0450    3.6829 C   0  0  0  0  0  0
   29.2060   40.9709    0.5775 H   0  0  0  0  0  0
   28.4309   40.1880    1.7898 H   0  0  0  0  0  0
   27.8261   43.1170    5.0454 H   0  0  0  0  0  0
   29.1526   42.3835    4.1603 H   0  0  0  0  0  0
   28.5878   43.9834    3.7281 H   0  0  0  0  0  0
   28.3711   43.0927    1.2809 H   0  0  0  0  0  0
   27.0987   41.9322    0.8653 H   0  0  0  0  0  0
   25.6767   43.5811    4.0073 H   0  0  0  0  0  0
   26.2639   44.2618    2.5365 H   0  0  0  0  0  0
   23.9836   43.3859    2.2010 H   0  0  0  0  0  0
   25.0464   42.4455    1.2282 H   0  0  0  0  0  0
   22.0554   42.7814    2.7207 H   0  0  0  0  0  0
   18.6564   39.8117    3.9910 H   0  0  0  0  0  0
   16.5284   39.3256    5.1206 H   0  0  0  0  0  0
   16.2832   39.7345    7.5456 H   0  0  0  0  0  0
   21.2198   38.7368    6.7052 H   0  0  0  0  0  0
   22.9199   38.4292    6.3546 H   0  0  0  0  0  0
   25.2604   39.4837    3.2991 H   0  0  0  0  0  0
   25.8004   40.2858    1.8668 H   0  0  0  0  0  0
   27.5372   40.3074    3.7458 H   0  0  0  0  0  0
   26.4286   41.2000    4.7199 H   0  0  0  0  0  0
   29.6913   41.1835    2.1338 H   0  0  0  0  0  0
  1  2  1  0  0  0
  1 27  1  0  0  0
  1 28  1  0  0  0
  1 29  1  0  0  0
  2 24  1  0  0  0
  2  3  1  0  0  0
  2  5  1  0  0  0
  3  4  1  0  0  0
  3 30  1  0  0  0
  3 31  1  0  0  0
  4 25  1  0  0  0
  4 26  1  0  0  0
  4 46  1  0  0  0
  5  6  1  0  0  0
  5 32  1  0  0  0
  5 33  1  0  0  0
  6  7  1  0  0  0
  6 34  1  0  0  0
  6 35  1  0  0  0
  7  8  1  0  0  0
  7 23  1  0  0  0
  8 22  1  0  0  0
  8  9  2  0  0  0
  9 10  1  0  0  0
  9 36  1  0  0  0
 10 11  2  0  0  0
 11 12  1  0  0  0
 11 20  1  0  0  0
 12 18  1  0  0  0
 12 13  2  0  0  0
 13 14  1  0  0  0
 13 37  1  0  0  0
 14 15  2  0  0  0
 14 38  1  0  0  0
 15 16  1  0  0  0
 15 39  1  0  0  0
 16 17  1  0  0  0
 16 18  2  0  0  0
 18 19  1  0  0  0
 20 21  1  0  0  0
 20 22  2  0  0  0
 21 40  1  0  0  0
 21 41  1  0  0  0
 23 24  1  0  0  0
 23 42  1  0  0  0
 23 43  1  0  0  0
 24 44  1  0  0  0
 24 45  1  0  0  0
M  CHG  1   4   1
M  END
> <s_m_source_file>
/home/user-home/yujie/0_PBCNetv2/data/FEP/shp2/inp_ligprep.csv

> <i_m_source_file_index>
15

> <i_lp_mmshare_version>
51139

> <i_f3d_flags>
0

> <s_epik_input>
W05IMl1bQ0gyXUMxKFtDSDNdKVtDSDJdW0NIMl1OKFtDSDJdW0NIMl0xKWMyW2NIXW5jKGMobjIpW05IMl0pLWMzW2NIXVtjSF1bY0hdYyhDbCljM0Ns

> <s_epik_cmdline>
J2VwaWtfcHl0aG9uJywgJy1waHQnLCAnMi4wJywgJy1waCcsICc3LjQnLCAnLXRuJywgJzgnLCAnLW1hJywgJzIwMCcsICctaW1hZScsICc8aW5maWxlLm1hZT4nLCAnLW9tYWUnLCAnPG91dGZpbGUubWFlPic=

> <r_lp_tautomer_probability>
1

> <r_epik_Ionization_Penalty>
  0.0010

> <r_epik_Ionization_Penalty_Charging>
  0.0009

> <r_epik_Ionization_Penalty_Neutral>
  0.0001

> <r_epik_State_Penalty>
  0.0006

> <r_epik_Charging_Adjusted_Penalty>
0.00152569

> <i_epik_Tot_Q>
1

> <i_epik_Tot_abs_Q>
1

> <s_lp_Force_Field>
OPLS3e

> <r_lp_Energy>
51.2518

> <b_lp_Chiralities_Consistent>
1

> <s_lp_Variant>
lig_shp2_Example8-1

> <s_i_glide_gridfile>
shp2-001-gridgen

> <i_i_glide_lignum>
41

> <i_i_glide_rotatable_bonds>
3

> <r_i_docking_score>
-8.53464974697592

> <r_i_glide_ligand_efficiency>
-0.355610406123997

> <r_i_glide_ligand_efficiency_sa>
-1.02575790977172

> <r_i_glide_ligand_efficiency_ln>
-2.0427333140093

> <r_i_glide_gscore>
-8.53524992397592

> <r_i_glide_lipo>
-2.84090062737905

> <r_i_glide_hbond>
-0.482392895946445

> <r_i_glide_metal>
-0

> <r_i_glide_rewards>
-1.186266135632

> <r_i_glide_evdw>
-45.5028190612793

> <r_i_glide_ecoul>
-12.9232969284058

> <r_i_glide_erotb>
0.285488695329826

> <r_i_glide_esite>
-0.0975434680234229

> <r_i_glide_emodel>
-93.9115894543611

> <r_i_glide_energy>
-58.4261159896851

> <r_i_glide_einternal>
0.941927671432495

> <i_i_glide_confnum>
27

> <i_i_glide_posenum>
176

> <r_i_glide_eff_state_penalty>
0.000600177

$$$$
