lig_shp2_Example24
                    3D
 Schrodinger Suite 2020-3.
 46 48  0  0  1  0            999 V2000
   21.8587   42.7788    2.0162 C   0  0  0  0  0  0
   22.0386   41.8984    3.2489 C   0  0  0  0  0  0
   20.8818   41.6502    3.9212 N   0  0  0  0  0  0
   20.9118   40.7811    4.9659 C   0  0  0  0  0  0
   19.6126   40.5439    5.6569 C   0  0  0  0  0  0
   18.5464   39.9998    4.9295 C   0  0  0  0  0  0
   17.3273   39.7304    5.5445 C   0  0  0  0  0  0
   17.1624   39.9835    6.9036 C   0  0  0  0  0  0
   18.2100   40.5179    7.6489 C   0  0  0  0  0  0
   17.9655   40.7933    9.3392 Cl  0  0  0  0  0  0
   19.4312   40.8175    7.0280 C   0  0  0  0  0  0
   20.6871   41.5832    7.9500 Cl  0  0  0  0  0  0
   22.1056   40.1311    5.3094 C   0  0  0  0  0  0
   22.1656   39.1803    6.3207 N   0  0  0  0  0  0
   23.2604   40.3835    4.6544 N   0  0  0  0  0  0
   23.2556   41.2823    3.6322 C   0  0  0  0  0  0
   24.5050   41.5413    3.0699 N   0  0  0  0  0  0
   24.8937   42.8597    2.5499 C   0  0  0  0  0  0
   26.2521   43.3394    3.0922 C   0  0  0  0  0  0
   27.3705   42.3222    2.7920 C   0  0  0  0  0  0
   27.7243   42.2363    1.2925 C   0  0  0  0  0  0
   28.6384   42.7835    3.5242 N   0  3  0  0  0  0
   26.9386   40.9725    3.4018 C   0  0  0  0  0  0
   25.5554   40.5199    2.8667 C   0  0  0  0  0  0
   28.4953   42.8015    4.5250 H   0  0  0  0  0  0
   29.4183   42.1591    3.3167 H   0  0  0  0  0  0
   22.5644   42.5147    1.2277 H   0  0  0  0  0  0
   20.8628   42.6619    1.5855 H   0  0  0  0  0  0
   21.9852   43.8310    2.2643 H   0  0  0  0  0  0
   18.6699   39.7656    3.8798 H   0  0  0  0  0  0
   16.5221   39.2950    4.9707 H   0  0  0  0  0  0
   16.2258   39.7406    7.3855 H   0  0  0  0  0  0
   21.3232   38.9317    6.8149 H   0  0  0  0  0  0
   23.0377   38.6887    6.4963 H   0  0  0  0  0  0
   24.1542   43.5835    2.8725 H   0  0  0  0  0  0
   24.8817   42.8431    1.4596 H   0  0  0  0  0  0
   26.1491   43.5171    4.1645 H   0  0  0  0  0  0
   26.4611   44.3213    2.6686 H   0  0  0  0  0  0
   26.8800   41.8990    0.6922 H   0  0  0  0  0  0
   28.5454   41.5394    1.1143 H   0  0  0  0  0  0
   28.0273   43.2069    0.8984 H   0  0  0  0  0  0
   27.6940   40.2062    3.2171 H   0  0  0  0  0  0
   26.8686   41.0352    4.4907 H   0  0  0  0  0  0
   25.2814   39.5833    3.3521 H   0  0  0  0  0  0
   25.6092   40.2979    1.8004 H   0  0  0  0  0  0
   28.8821   43.7170    3.2239 H   0  0  0  0  0  0
  1  2  1  0  0  0
  1 27  1  0  0  0
  1 28  1  0  0  0
  1 29  1  0  0  0
  2 16  1  0  0  0
  2  3  2  0  0  0
  3  4  1  0  0  0
  4  5  1  0  0  0
  4 13  2  0  0  0
  5 11  1  0  0  0
  5  6  2  0  0  0
  6  7  1  0  0  0
  6 30  1  0  0  0
  7  8  2  0  0  0
  7 31  1  0  0  0
  8  9  1  0  0  0
  8 32  1  0  0  0
  9 10  1  0  0  0
  9 11  2  0  0  0
 11 12  1  0  0  0
 13 14  1  0  0  0
 13 15  1  0  0  0
 14 33  1  0  0  0
 14 34  1  0  0  0
 15 16  2  0  0  0
 16 17  1  0  0  0
 17 24  1  0  0  0
 17 18  1  0  0  0
 18 19  1  0  0  0
 18 35  1  0  0  0
 18 36  1  0  0  0
 19 20  1  0  0  0
 19 37  1  0  0  0
 19 38  1  0  0  0
 20 21  1  0  0  0
 20 22  1  0  0  0
 20 23  1  0  0  0
 21 39  1  0  0  0
 21 40  1  0  0  0
 21 41  1  0  0  0
 22 25  1  0  0  0
 22 26  1  0  0  0
 22 46  1  0  0  0
 23 24  1  0  0  0
 23 42  1  0  0  0
 23 43  1  0  0  0
 24 44  1  0  0  0
 24 45  1  0  0  0
M  CHG  1  22   1
M  END
> <s_m_source_file>
/home/user-home/yujie/0_PBCNetv2/data/FEP/shp2/inp_ligprep.csv

> <i_m_source_file_index>
5

> <i_lp_mmshare_version>
51139

> <i_f3d_flags>
0

> <s_epik_input>
Q2xjMWMoQ2wpW2NIXVtjSF1bY0hdYzEtYyhuYzJbQ0gzXSljKFtOSDJdKW5jMk4oW0NIMl1bQ0gyXTMpW0NIMl1bQ0gyXUMzKFtDSDNdKVtOSDJd

> <s_epik_cmdline>
J2VwaWtfcHl0aG9uJywgJy1waHQnLCAnMi4wJywgJy1waCcsICc3LjQnLCAnLXRuJywgJzgnLCAnLW1hJywgJzIwMCcsICctaW1hZScsICc8aW5maWxlLm1hZT4nLCAnLW9tYWUnLCAnPG91dGZpbGUubWFlPic=

> <r_lp_tautomer_probability>
1

> <r_epik_Ionization_Penalty>
  0.0135

> <r_epik_Ionization_Penalty_Charging>
  0.0130

> <r_epik_Ionization_Penalty_Neutral>
  0.0004

> <r_epik_State_Penalty>
  0.0101

> <r_epik_Charging_Adjusted_Penalty>
0.0231465

> <i_epik_Tot_Q>
1

> <i_epik_Tot_abs_Q>
1

> <s_lp_Force_Field>
OPLS3e

> <r_lp_Energy>
49.7833

> <b_lp_Chiralities_Consistent>
1

> <s_lp_Variant>
lig_shp2_Example24-1

> <s_i_glide_gridfile>
shp2-001-gridgen

> <i_i_glide_lignum>
11

> <i_i_glide_rotatable_bonds>
2

> <r_i_docking_score>
-8.07109445614822

> <r_i_glide_ligand_efficiency>
-0.336295602339509

> <r_i_glide_ligand_efficiency_sa>
-0.970044374913239

> <r_i_glide_ligand_efficiency_ln>
-1.93178326174799

> <r_i_glide_gscore>
-8.08121225614822

> <r_i_glide_lipo>
-2.51270212035001

> <r_i_glide_hbond>
-0.52

> <r_i_glide_metal>
-0

> <r_i_glide_rewards>
-1.18580178953057

> <r_i_glide_evdw>
-45.0211067199707

> <r_i_glide_ecoul>
-12.5093860626221

> <r_i_glide_erotb>
0.285488695329826

> <r_i_glide_esite>
-0.0207337962056261

> <r_i_glide_emodel>
-91.7504399934002

> <r_i_glide_energy>
-57.5304927825928

> <r_i_glide_einternal>
0.296083599328995

> <i_i_glide_confnum>
9

> <i_i_glide_posenum>
65

> <r_i_glide_eff_state_penalty>
0.0101178

$$$$
