lig_shp2_Example29
                    3D
 Schrodinger Suite 2020-3.
 47 49  0  0  1  0            999 V2000
   27.9796   42.5650    1.9378 C   0  0  0  0  0  0
   27.0632   42.5872    3.1795 C   0  0  0  0  0  0
   27.8689   43.2134    4.3207 N   0  3  0  0  0  0
   25.8058   43.4638    2.9625 C   0  0  0  0  0  0
   24.7770   42.7583    2.0459 C   0  0  0  0  0  0
   24.3808   41.4827    2.6616 N   0  0  0  0  0  0
   23.2945   41.3726    3.5257 C   0  0  0  0  0  0
   22.1157   42.1156    3.3603 C   0  0  0  0  0  0
   21.0128   41.8978    4.1258 N   0  0  0  0  0  0
   21.0782   40.9192    5.0700 C   0  0  0  0  0  0
   19.8289   40.6912    5.8328 C   0  0  0  0  0  0
   19.7910   40.9562    7.1581 C   0  0  0  0  0  0
   18.5596   40.8292    8.0512 C   0  0  0  0  0  0
   17.2539   40.6210    7.2536 C   0  0  0  0  0  0
   17.4394   39.8086    5.9609 C   0  0  0  0  0  0
   18.5732   40.3204    5.0472 C   0  0  0  0  0  0
   22.2516   40.1690    5.2405 C   0  0  0  0  0  0
   22.3639   39.1836    6.2154 N   0  0  0  0  0  0
   23.3373   40.3828    4.4613 N   0  0  0  0  0  0
   25.5553   40.5870    2.6945 C   0  0  0  0  0  0
   26.6402   41.1703    3.6314 C   0  0  0  0  0  0
   27.3373   43.2206    5.1810 H   0  0  0  0  0  0
   28.7299   42.7096    4.4810 H   0  0  0  0  0  0
   27.4795   42.1319    1.0735 H   0  0  0  0  0  0
   28.8796   41.9751    2.1141 H   0  0  0  0  0  0
   28.2962   43.5701    1.6541 H   0  0  0  0  0  0
   25.3153   43.6669    3.9156 H   0  0  0  0  0  0
   26.0655   44.4459    2.5644 H   0  0  0  0  0  0
   23.9286   43.4044    1.8281 H   0  0  0  0  0  0
   25.2225   42.5522    1.0714 H   0  0  0  0  0  0
   22.0197   42.8674    2.5923 H   0  0  0  0  0  0
   20.7150   41.2581    7.6338 H   0  0  0  0  0  0
   18.7162   39.9835    8.7137 H   0  0  0  0  0  0
   18.4572   41.6815    8.7199 H   0  0  0  0  0  0
   16.5234   40.1207    7.8919 H   0  0  0  0  0  0
   16.8090   41.5843    7.0226 H   0  0  0  0  0  0
   16.5034   39.7605    5.4014 H   0  0  0  0  0  0
   17.6602   38.7838    6.2433 H   0  0  0  0  0  0
   18.2585   41.1834    4.4651 H   0  0  0  0  0  0
   18.8056   39.5858    4.2741 H   0  0  0  0  0  0
   21.5487   38.9525    6.7646 H   0  0  0  0  0  0
   23.2243   38.6521    6.3205 H   0  0  0  0  0  0
   25.2751   39.5747    2.9872 H   0  0  0  0  0  0
   25.9457   40.4908    1.6798 H   0  0  0  0  0  0
   27.5017   40.5032    3.6828 H   0  0  0  0  0  0
   26.2289   41.1866    4.6441 H   0  0  0  0  0  0
   28.0949   44.1716    4.0865 H   0  0  0  0  0  0
  1  2  1  0  0  0
  1 24  1  0  0  0
  1 25  1  0  0  0
  1 26  1  0  0  0
  2 21  1  0  0  0
  2  3  1  0  0  0
  2  4  1  0  0  0
  3 22  1  0  0  0
  3 23  1  0  0  0
  3 47  1  0  0  0
  4  5  1  0  0  0
  4 27  1  0  0  0
  4 28  1  0  0  0
  5  6  1  0  0  0
  5 29  1  0  0  0
  5 30  1  0  0  0
  6  7  1  0  0  0
  6 20  1  0  0  0
  7 19  1  0  0  0
  7  8  2  0  0  0
  8  9  1  0  0  0
  8 31  1  0  0  0
  9 10  2  0  0  0
 10 11  1  0  0  0
 10 17  1  0  0  0
 11 16  1  0  0  0
 11 12  2  0  0  0
 12 13  1  0  0  0
 12 32  1  0  0  0
 13 14  1  0  0  0
 13 33  1  0  0  0
 13 34  1  0  0  0
 14 15  1  0  0  0
 14 35  1  0  0  0
 14 36  1  0  0  0
 15 16  1  0  0  0
 15 37  1  0  0  0
 15 38  1  0  0  0
 16 39  1  0  0  0
 16 40  1  0  0  0
 17 18  1  0  0  0
 17 19  2  0  0  0
 18 41  1  0  0  0
 18 42  1  0  0  0
 20 21  1  0  0  0
 20 43  1  0  0  0
 20 44  1  0  0  0
 21 45  1  0  0  0
 21 46  1  0  0  0
M  CHG  1   3   1
M  END
> <s_m_source_file>
/home/user-home/yujie/0_PBCNetv2/data/FEP/shp2/inp_ligprep.csv

> <i_m_source_file_index>
23

> <i_lp_mmshare_version>
51139

> <i_f3d_flags>
0

> <s_epik_input>
W0NIM11DMShbTkgyXSlbQ0gyXVtDSDJdTihbQ0gyXVtDSDJdMSljMltjSF1uYyhjKG4yKVtOSDJdKUMzPVtDSF1bQ0gyXVtDSDJdW0NIMl1bQ0gyXTM=

> <s_epik_cmdline>
J2VwaWtfcHl0aG9uJywgJy1waHQnLCAnMi4wJywgJy1waCcsICc3LjQnLCAnLXRuJywgJzgnLCAnLW1hJywgJzIwMCcsICctaW1hZScsICc8aW5maWxlLm1hZT4nLCAnLW9tYWUnLCAnPG91dGZpbGUubWFlPic=

> <r_epik_Ionization_Penalty>
  0.0134

> <r_epik_Ionization_Penalty_Charging>
  0.0130

> <r_epik_Ionization_Penalty_Neutral>
  0.0003

> <r_epik_State_Penalty>
  0.0101

> <r_epik_Charging_Adjusted_Penalty>
0.0231465

> <i_epik_Tot_Q>
1

> <i_epik_Tot_abs_Q>
1

> <s_lp_Force_Field>
OPLS3e

> <r_lp_Energy>
39.1572

> <b_lp_Chiralities_Consistent>
1

> <s_lp_Variant>
lig_shp2_Example29-1

> <s_i_glide_gridfile>
shp2-001-gridgen

> <i_i_glide_lignum>
63

> <i_i_glide_rotatable_bonds>
2

> <r_i_docking_score>
-7.52718645721499

> <r_i_glide_ligand_efficiency>
-0.358437450343571

> <r_i_glide_ligand_efficiency_sa>
-0.988901746469708

> <r_i_glide_ligand_efficiency_ln>
-1.86108164143401

> <r_i_glide_gscore>
-7.53730425721499

> <r_i_glide_lipo>
-2.19506938548152

> <r_i_glide_hbond>
-0.32

> <r_i_glide_metal>
-0

> <r_i_glide_rewards>
-1.72691087765436

> <r_i_glide_evdw>
-41.9135131835938

> <r_i_glide_ecoul>
-10.9137468338013

> <r_i_glide_erotb>
0.437413690170765

> <r_i_glide_esite>
0

> <r_i_glide_emodel>
-81.4174947698868

> <r_i_glide_energy>
-52.827260017395

> <r_i_glide_einternal>
1.16822302341461

> <i_i_glide_confnum>
7

> <i_i_glide_posenum>
141

> <r_i_glide_eff_state_penalty>
0.0101178

$$$$
