lig_shp2_Example26
                    3D
 Schrodinger Suite 2020-3.
 47 49  0  0  1  0            999 V2000
   27.6098   41.9176    1.2230 C   0  0  0  0  0  0
   26.9701   41.0908    2.3604 C   0  0  0  0  0  0
   28.0605   40.1582    2.8905 N   0  3  0  0  0  0
   26.4652   41.9597    3.5328 C   0  0  0  0  0  0
   25.2239   42.7839    3.1074 C   0  0  0  0  0  0
   24.1306   41.9446    2.5842 N   0  0  0  0  0  0
   23.0351   41.5972    3.3615 C   0  0  0  0  0  0
   23.2397   40.6485    4.3219 N   0  0  0  0  0  0
   22.1865   40.2698    5.0970 C   0  0  0  0  0  0
   22.4048   39.2370    6.0060 N   0  0  0  0  0  0
   20.9189   40.8513    4.9284 C   0  0  0  0  0  0
   19.6885   40.5204    5.7012 C   0  0  0  0  0  0
   18.5918   39.9843    5.0126 C   0  0  0  0  0  0
   17.3931   39.7214    5.6667 C   0  0  0  0  0  0
   17.2755   39.9790    7.0290 C   0  0  0  0  0  0
   18.3552   40.4977    7.7403 C   0  0  0  0  0  0
   18.1536   40.7833    9.4350 Cl  0  0  0  0  0  0
   19.5617   40.7821    7.0799 C   0  0  0  0  0  0
   20.8600   41.5274    7.9538 Cl  0  0  0  0  0  0
   20.7183   41.7839    3.9665 N   0  0  0  0  0  0
   21.7514   42.1587    3.1719 C   0  0  0  0  0  0
   21.3755   43.1835    2.1267 C   0  0  0  0  0  0
   22.0278   43.1839    0.9687 N   0  0  0  0  0  0
   20.4605   43.9787    2.3176 O   0  0  0  0  0  0
   24.5832   41.0616    1.4972 C   0  0  0  0  0  0
   25.7971   40.1988    1.9038 C   0  0  0  0  0  0
   27.7889   39.7502    3.7720 H   0  0  0  0  0  0
   28.2376   39.4171    2.2288 H   0  0  0  0  0  0
   26.9150   42.6433    0.8005 H   0  0  0  0  0  0
   27.9519   41.2836    0.4039 H   0  0  0  0  0  0
   28.4722   42.4843    1.5792 H   0  0  0  0  0  0
   26.1844   41.3508    4.3949 H   0  0  0  0  0  0
   27.2543   42.6170    3.9035 H   0  0  0  0  0  0
   24.8631   43.4061    3.9258 H   0  0  0  0  0  0
   25.4977   43.4906    2.3226 H   0  0  0  0  0  0
   21.6362   38.9067    6.5683 H   0  0  0  0  0  0
   23.3205   38.8109    6.0886 H   0  0  0  0  0  0
   18.6697   39.7717    3.9540 H   0  0  0  0  0  0
   16.5643   39.2984    5.1177 H   0  0  0  0  0  0
   16.3512   39.7494    7.5395 H   0  0  0  0  0  0
   22.8500   42.6091    0.8445 H   0  0  0  0  0  0
   21.7659   43.8594    0.2617 H   0  0  0  0  0  0
   23.7618   40.4376    1.1395 H   0  0  0  0  0  0
   24.8538   41.6988    0.6546 H   0  0  0  0  0  0
   26.0948   39.5442    1.0830 H   0  0  0  0  0  0
   25.4784   39.5215    2.7000 H   0  0  0  0  0  0
   28.9438   40.6553    3.0152 H   0  0  0  0  0  0
  1  2  1  0  0  0
  1 29  1  0  0  0
  1 30  1  0  0  0
  1 31  1  0  0  0
  2 26  1  0  0  0
  2  3  1  0  0  0
  2  4  1  0  0  0
  3 27  1  0  0  0
  3 28  1  0  0  0
  3 47  1  0  0  0
  4  5  1  0  0  0
  4 32  1  0  0  0
  4 33  1  0  0  0
  5  6  1  0  0  0
  5 34  1  0  0  0
  5 35  1  0  0  0
  6  7  1  0  0  0
  6 25  1  0  0  0
  7 21  1  0  0  0
  7  8  2  0  0  0
  8  9  1  0  0  0
  9 10  1  0  0  0
  9 11  2  0  0  0
 10 36  1  0  0  0
 10 37  1  0  0  0
 11 12  1  0  0  0
 11 20  1  0  0  0
 12 18  1  0  0  0
 12 13  2  0  0  0
 13 14  1  0  0  0
 13 38  1  0  0  0
 14 15  2  0  0  0
 14 39  1  0  0  0
 15 16  1  0  0  0
 15 40  1  0  0  0
 16 17  1  0  0  0
 16 18  2  0  0  0
 18 19  1  0  0  0
 20 21  2  0  0  0
 21 22  1  0  0  0
 22 23  1  0  0  0
 22 24  2  0  0  0
 23 41  1  0  0  0
 23 42  1  0  0  0
 25 26  1  0  0  0
 25 43  1  0  0  0
 25 44  1  0  0  0
 26 45  1  0  0  0
 26 46  1  0  0  0
M  CHG  1   3   1
M  END
> <s_m_source_file>
/home/user-home/yujie/0_PBCNetv2/data/FEP/shp2/inp_ligprep.csv

> <i_m_source_file_index>
11

> <i_lp_mmshare_version>
51139

> <i_f3d_flags>
0

> <s_epik_input>
W0NIM11DMShbTkgyXSlbQ0gyXVtDSDJdTihbQ0gyXVtDSDJdMSljMm5jKFtOSDJdKWMobmMyQyg9TylbTkgyXSktYzNbY0hdW2NIXVtjSF1jKENsKWMzQ2w=

> <s_epik_cmdline>
J2VwaWtfcHl0aG9uJywgJy1waHQnLCAnMi4wJywgJy1waCcsICc3LjQnLCAnLXRuJywgJzgnLCAnLW1hJywgJzIwMCcsICctaW1hZScsICc8aW5maWxlLm1hZT4nLCAnLW9tYWUnLCAnPG91dGZpbGUubWFlPic=

> <r_lp_tautomer_probability>
1

> <r_epik_Ionization_Penalty>
  0.0130

> <r_epik_Ionization_Penalty_Charging>
  0.0130

> <r_epik_Ionization_Penalty_Neutral>
  0.0000

> <r_epik_State_Penalty>
  0.0101

> <r_epik_Charging_Adjusted_Penalty>
0.0231465

> <i_epik_Tot_Q>
1

> <i_epik_Tot_abs_Q>
1

> <s_lp_Force_Field>
OPLS3e

> <r_lp_Energy>
49.2483

> <b_lp_Chiralities_Consistent>
1

> <s_lp_Variant>
lig_shp2_Example26-1

> <s_i_glide_gridfile>
shp2-001-gridgen

> <i_i_glide_lignum>
25

> <i_i_glide_rotatable_bonds>
3

> <r_i_docking_score>
-8.72355217636929

> <r_i_glide_ligand_efficiency>
-0.335521237552665

> <r_i_glide_ligand_efficiency_sa>
-0.993980346037451

> <r_i_glide_ligand_efficiency_ln>
-2.04869760431093

> <r_i_glide_gscore>
-8.73366997636929

> <r_i_glide_lipo>
-2.46992442379217

> <r_i_glide_hbond>
-0.779435899998643

> <r_i_glide_metal>
-0

> <r_i_glide_rewards>
-1.25730568570824

> <r_i_glide_evdw>
-53.0399169921875

> <r_i_glide_ecoul>
-11.596378326416

> <r_i_glide_erotb>
0.249138168657305

> <r_i_glide_esite>
-0.0846895369557641

> <r_i_glide_emodel>
-101.901149960262

> <r_i_glide_energy>
-64.6362953186035

> <r_i_glide_einternal>
4.46708726882935

> <i_i_glide_confnum>
4

> <i_i_glide_posenum>
15

> <r_i_glide_eff_state_penalty>
0.0101178

$$$$
