lig_shp2_Example2
                    3D
 Schrodinger Suite 2020-3.
 47 49  0  0  1  0            999 V2000
   17.8267   40.8124    8.8520 C   0  0  0  0  0  0
   18.1653   40.5321    7.3951 C   0  0  0  0  0  0
   17.1787   39.9838    6.5724 C   0  0  0  0  0  0
   17.4404   39.7293    5.2291 C   0  0  0  0  0  0
   18.6935   40.0168    4.7032 C   0  0  0  0  0  0
   19.7028   40.5547    5.5080 C   0  0  0  0  0  0
   21.0310   40.8061    4.8943 C   0  0  0  0  0  0
   21.2138   41.8843    4.0170 C   0  0  0  0  0  0
   22.4229   42.0859    3.4578 N   0  3  0  0  0  0
   23.4702   41.2712    3.7086 C   0  0  0  0  0  0
   24.7567   41.5155    3.1145 N   0  0  0  0  0  0
   25.8973   40.5547    3.1624 C   0  0  0  0  0  0
   27.2105   41.2268    3.6263 C   0  0  0  0  0  0
   27.5365   42.5020    2.8202 C   0  0  0  0  0  0
   27.9883   42.1972    1.3754 C   0  0  0  0  0  0
   28.7183   43.1835    3.5205 N   0  3  0  0  0  0
   26.3148   43.4461    2.8843 C   0  0  0  0  0  0
   25.0450   42.7559    2.3516 C   0  0  0  0  0  0
   23.3536   40.2011    4.5401 N   0  0  0  0  0  0
   22.1478   39.9780    5.1216 C   0  0  0  0  0  0
   22.0612   38.8671    5.9534 N   0  0  0  0  0  0
   19.4359   40.8121    6.8661 C   0  0  0  0  0  0
   20.6561   41.5092    7.8834 Cl  0  0  0  0  0  0
   29.5542   42.6118    3.4232 H   0  0  0  0  0  0
   28.8805   44.0951    3.1086 H   0  0  0  0  0  0
   16.8607   40.3847    9.1208 H   0  0  0  0  0  0
   17.7990   41.8864    9.0417 H   0  0  0  0  0  0
   18.5786   40.3827    9.5185 H   0  0  0  0  0  0
   16.2041   39.7454    6.9753 H   0  0  0  0  0  0
   16.6832   39.2910    4.5977 H   0  0  0  0  0  0
   18.8872   39.7987    3.6623 H   0  0  0  0  0  0
   20.4374   42.5841    3.7401 H   0  0  0  0  0  0
   25.6664   39.7372    3.8407 H   0  0  0  0  0  0
   25.9876   40.0975    2.1756 H   0  0  0  0  0  0
   27.0970   41.4683    4.6857 H   0  0  0  0  0  0
   28.0417   40.5191    3.5714 H   0  0  0  0  0  0
   27.2209   41.6683    0.8107 H   0  0  0  0  0  0
   28.2167   43.1136    0.8285 H   0  0  0  0  0  0
   28.8840   41.5720    1.3599 H   0  0  0  0  0  0
   26.4609   44.3802    2.3398 H   0  0  0  0  0  0
   26.1340   43.7446    3.9195 H   0  0  0  0  0  0
   25.0890   42.5068    1.2903 H   0  0  0  0  0  0
   24.2191   43.4584    2.4553 H   0  0  0  0  0  0
   21.1867   38.6683    6.4129 H   0  0  0  0  0  0
   22.9037   38.3486    6.1773 H   0  0  0  0  0  0
   28.5392   43.3142    4.5085 H   0  0  0  0  0  0
   22.5548   42.8629    2.8239 H   0  0  0  0  0  0
  1  2  1  0  0  0
  1 26  1  0  0  0
  1 27  1  0  0  0
  1 28  1  0  0  0
  2 22  1  0  0  0
  2  3  2  0  0  0
  3  4  1  0  0  0
  3 29  1  0  0  0
  4  5  2  0  0  0
  4 30  1  0  0  0
  5  6  1  0  0  0
  5 31  1  0  0  0
  6  7  1  0  0  0
  6 22  2  0  0  0
  7 20  1  0  0  0
  7  8  2  0  0  0
  8  9  1  0  0  0
  8 32  1  0  0  0
  9 10  2  0  0  0
  9 47  1  0  0  0
 10 11  1  0  0  0
 10 19  1  0  0  0
 11 18  1  0  0  0
 11 12  1  0  0  0
 12 13  1  0  0  0
 12 33  1  0  0  0
 12 34  1  0  0  0
 13 14  1  0  0  0
 13 35  1  0  0  0
 13 36  1  0  0  0
 14 15  1  0  0  0
 14 16  1  0  0  0
 14 17  1  0  0  0
 15 37  1  0  0  0
 15 38  1  0  0  0
 15 39  1  0  0  0
 16 24  1  0  0  0
 16 25  1  0  0  0
 16 46  1  0  0  0
 17 18  1  0  0  0
 17 40  1  0  0  0
 17 41  1  0  0  0
 18 42  1  0  0  0
 18 43  1  0  0  0
 19 20  2  0  0  0
 20 21  1  0  0  0
 21 44  1  0  0  0
 21 45  1  0  0  0
 22 23  1  0  0  0
M  CHG  2   9   1  16   1
M  END
> <s_m_source_file>
/home/user-home/yujie/0_PBCNetv2/data/FEP/shp2/inp_ligprep.csv

> <i_m_source_file_index>
22

> <i_lp_mmshare_version>
51139

> <i_f3d_flags>
0

> <s_epik_input>
W0NIM11jMVtjSF1bY0hdW2NIXWMoYzFDbCktYzJbY0hdbmMobmMyW05IMl0pTihbQ0gyXVtDSDJdMylbQ0gyXVtDSDJdQzMoW0NIM10pW05IMl0=

> <s_epik_cmdline>
J2VwaWtfcHl0aG9uJywgJy1waHQnLCAnMi4wJywgJy1waCcsICc3LjQnLCAnLXRuJywgJzgnLCAnLW1hJywgJzIwMCcsICctaW1hZScsICc8aW5maWxlLm1hZT4nLCAnLW9tYWUnLCAnPG91dGZpbGUubWFlPic=

> <r_lp_tautomer_probability>
0.575011

> <r_epik_Ionization_Penalty>
  1.3555

> <r_epik_Ionization_Penalty_Charging>
  1.3554

> <r_epik_Ionization_Penalty_Neutral>
  0.0001

> <r_epik_State_Penalty>
  1.5008

> <r_epik_Charging_Adjusted_Penalty>
2.85623

> <i_epik_Tot_Q>
2

> <i_epik_Tot_abs_Q>
2

> <s_lp_Force_Field>
OPLS3e

> <r_lp_Energy>
43.3641

> <b_lp_Chiralities_Consistent>
1

> <s_lp_Variant>
lig_shp2_Example2-2

> <s_i_glide_gridfile>
shp2-001-gridgen

> <i_i_glide_lignum>
60

> <i_i_glide_rotatable_bonds>
2

> <r_i_docking_score>
-6.42419197112902

> <r_i_glide_ligand_efficiency>
-0.279312694396914

> <r_i_glide_ligand_efficiency_sa>
-0.794328147818551

> <r_i_glide_ligand_efficiency_ln>
-1.55342786997119

> <r_i_glide_gscore>
-7.92502197112902

> <r_i_glide_lipo>
-2.25920636963662

> <r_i_glide_hbond>
-0.476614629736597

> <r_i_glide_metal>
-0

> <r_i_glide_rewards>
-1.66299766238241

> <r_i_glide_evdw>
-37.5290451049805

> <r_i_glide_ecoul>
-13.1763114929199

> <r_i_glide_erotb>
0.338286886958326

> <r_i_glide_esite>
-0.0115912171447062

> <r_i_glide_emodel>
-83.54267248889

> <r_i_glide_energy>
-50.7053565979004

> <r_i_glide_einternal>
1.37881755828857

> <i_i_glide_confnum>
15

> <i_i_glide_posenum>
5

> <r_i_glide_eff_state_penalty>
1.50083

$$$$
