lig_shp2_11
                    3D
 Schrodinger Suite 2020-3.
 46 48  0  0  1  0            999 V2000
   22.2584   38.1440    5.9198 C   0  0  0  0  0  0
   21.6235   39.4120    6.1253 N   0  0  0  0  0  0
   21.8039   40.4172    5.1641 C   0  0  0  0  0  0
   22.9805   40.5562    4.4908 N   0  0  0  0  0  0
   23.0947   41.5486    3.5589 C   0  0  0  0  0  0
   24.2760   41.6087    2.8124 N   0  0  0  0  0  0
   24.7143   42.7784    2.0268 C   0  0  0  0  0  0
   25.7402   43.6086    2.8347 C   0  0  0  0  0  0
   26.9736   42.7702    3.2469 C   0  0  0  0  0  0
   27.9568   42.5502    2.0778 C   0  0  0  0  0  0
   27.7177   43.5795    4.3196 N   0  3  0  0  0  0
   26.5105   41.4360    3.8804 C   0  0  0  0  0  0
   25.4411   40.7228    3.0152 C   0  0  0  0  0  0
   21.9791   42.3561    3.2809 C   0  0  0  0  0  0
   20.7948   42.2088    3.9331 N   0  0  0  0  0  0
   20.7152   41.2430    4.8881 C   0  0  0  0  0  0
   19.3991   40.9942    5.5366 C   0  0  0  0  0  0
   18.4011   40.3833    4.7725 C   0  0  0  0  0  0
   17.2047   39.9820    5.3583 C   0  0  0  0  0  0
   16.9909   40.1803    6.7204 C   0  0  0  0  0  0
   17.9752   40.7808    7.5035 C   0  0  0  0  0  0
   17.6620   41.0060    9.1891 Cl  0  0  0  0  0  0
   19.1876   41.1820    6.9212 C   0  0  0  0  0  0
   20.4193   41.8941    7.9203 Cl  0  0  0  0  0  0
   27.0942   43.8381    5.0755 H   0  0  0  0  0  0
   28.5031   43.0687    4.7009 H   0  0  0  0  0  0
   22.0609   37.4340    6.7206 H   0  0  0  0  0  0
   22.0604   37.7042    4.9521 H   0  0  0  0  0  0
   23.2840   38.3885    5.9124 H   0  0  0  0  0  0
   20.6996   39.3629    6.5283 H   0  0  0  0  0  0
   23.8890   43.3983    1.6822 H   0  0  0  0  0  0
   25.1806   42.4138    1.1100 H   0  0  0  0  0  0
   25.2353   43.9828    3.7244 H   0  0  0  0  0  0
   26.0368   44.4992    2.2775 H   0  0  0  0  0  0
   27.4971   41.9927    1.2620 H   0  0  0  0  0  0
   28.8396   41.9862    2.3894 H   0  0  0  0  0  0
   28.3049   43.4962    1.6605 H   0  0  0  0  0  0
   27.3571   40.7762    4.0766 H   0  0  0  0  0  0
   26.0589   41.6190    4.8503 H   0  0  0  0  0  0
   25.1539   39.7638    3.4482 H   0  0  0  0  0  0
   25.8582   40.4760    2.0377 H   0  0  0  0  0  0
   21.9981   43.1162    2.5162 H   0  0  0  0  0  0
   18.5676   40.1780    3.7225 H   0  0  0  0  0  0
   16.4594   39.4899    4.7529 H   0  0  0  0  0  0
   16.0665   39.8521    7.1743 H   0  0  0  0  0  0
   28.0583   44.4352    3.8965 H   0  0  0  0  0  0
  1  2  1  0  0  0
  1 27  1  0  0  0
  1 28  1  0  0  0
  1 29  1  0  0  0
  2  3  1  0  0  0
  2 30  1  0  0  0
  3 16  1  0  0  0
  3  4  2  0  0  0
  4  5  1  0  0  0
  5  6  1  0  0  0
  5 14  2  0  0  0
  6 13  1  0  0  0
  6  7  1  0  0  0
  7  8  1  0  0  0
  7 31  1  0  0  0
  7 32  1  0  0  0
  8  9  1  0  0  0
  8 33  1  0  0  0
  8 34  1  0  0  0
  9 10  1  0  0  0
  9 11  1  0  0  0
  9 12  1  0  0  0
 10 35  1  0  0  0
 10 36  1  0  0  0
 10 37  1  0  0  0
 11 25  1  0  0  0
 11 26  1  0  0  0
 11 46  1  0  0  0
 12 13  1  0  0  0
 12 38  1  0  0  0
 12 39  1  0  0  0
 13 40  1  0  0  0
 13 41  1  0  0  0
 14 15  1  0  0  0
 14 42  1  0  0  0
 15 16  2  0  0  0
 16 17  1  0  0  0
 17 23  1  0  0  0
 17 18  2  0  0  0
 18 19  1  0  0  0
 18 43  1  0  0  0
 19 20  2  0  0  0
 19 44  1  0  0  0
 20 21  1  0  0  0
 20 45  1  0  0  0
 21 22  1  0  0  0
 21 23  2  0  0  0
 23 24  1  0  0  0
M  CHG  1  11   1
M  END
> <s_m_source_file>
/home/user-home/yujie/0_PBCNetv2/data/FEP/shp2/inp_ligprep.csv

> <i_m_source_file_index>
10

> <i_lp_mmshare_version>
51139

> <i_f3d_flags>
0

> <s_epik_input>
W0NIM11DMShbTkgyXSlbQ0gyXVtDSDJdTihbQ0gyXVtDSDJdMSljKG5jMltOSF1bQ0gzXSlbY0hdbmMyLWMzW2NIXVtjSF1bY0hdYyhDbCljM0Ns

> <s_epik_cmdline>
J2VwaWtfcHl0aG9uJywgJy1waHQnLCAnMi4wJywgJy1waCcsICc3LjQnLCAnLXRuJywgJzgnLCAnLW1hJywgJzIwMCcsICctaW1hZScsICc8aW5maWxlLm1hZT4nLCAnLW9tYWUnLCAnPG91dGZpbGUubWFlPic=

> <r_lp_tautomer_probability>
1

> <r_epik_Ionization_Penalty>
  0.0133

> <r_epik_Ionization_Penalty_Charging>
  0.0130

> <r_epik_Ionization_Penalty_Neutral>
  0.0003

> <r_epik_State_Penalty>
  0.0101

> <r_epik_Charging_Adjusted_Penalty>
0.0231465

> <i_epik_Tot_Q>
1

> <i_epik_Tot_abs_Q>
1

> <s_lp_Force_Field>
OPLS3e

> <r_lp_Energy>
44.5748

> <b_lp_Chiralities_Consistent>
1

> <s_lp_Variant>
lig_shp2_11-1

> <s_i_glide_gridfile>
shp2-001-gridgen

> <i_i_glide_lignum>
23

> <i_i_glide_rotatable_bonds>
3

> <r_i_docking_score>
-6.78343444199601

> <r_i_glide_ligand_efficiency>
-0.282643101749834

> <r_i_glide_ligand_efficiency_sa>
-0.81528378323443

> <r_i_glide_ligand_efficiency_ln>
-1.62358713349346

> <r_i_glide_gscore>
-6.79355224199601

> <r_i_glide_lipo>
-2.09428755661812

> <r_i_glide_hbond>
0

> <r_i_glide_metal>
-0

> <r_i_glide_rewards>
-1.19332824795624

> <r_i_glide_evdw>
-38.1251182556152

> <r_i_glide_ecoul>
-12.5677947998047

> <r_i_glide_erotb>
0.285488695329826

> <r_i_glide_esite>
0

> <r_i_glide_emodel>
-76.9267097343765

> <r_i_glide_energy>
-50.6929130554199

> <r_i_glide_einternal>
2.78971719741821

> <i_i_glide_confnum>
26

> <i_i_glide_posenum>
247

> <r_i_glide_eff_state_penalty>
0.0101178

$$$$
