lig_shp2_Example4
                    3D
 Schrodinger Suite 2020-3.
 44 46  0  0  1  0            999 V2000
   17.2607   40.4356    8.3838 C   0  0  0  0  0  0
   18.1000   40.3639    7.1467 C   0  0  0  0  0  0
   17.7417   39.9834    5.8566 C   0  0  0  0  0  0
   18.7718   40.1043    4.9277 C   0  0  0  0  0  0
   19.9541   40.5401    5.4980 C   0  0  0  0  0  0
   21.2655   40.7806    4.8603 C   0  0  0  0  0  0
   21.4069   41.8009    3.9143 C   0  0  0  0  0  0
   22.5750   42.0339    3.2636 N   0  0  0  0  0  0
   23.6210   41.2049    3.5388 C   0  0  0  0  0  0
   24.8565   41.4445    2.8559 N   0  0  0  0  0  0
   26.0103   40.5036    2.9079 C   0  0  0  0  0  0
   27.2607   41.1959    3.4878 C   0  0  0  0  0  0
   27.6049   42.4920    2.7269 C   0  0  0  0  0  0
   28.1546   42.2404    1.3064 C   0  0  0  0  0  0
   28.7216   43.1834    3.5202 N   0  3  0  0  0  0
   26.3568   43.4063    2.7319 C   0  0  0  0  0  0
   25.1421   42.6938    2.1073 C   0  0  0  0  0  0
   23.5218   40.2175    4.4470 N   0  3  0  0  0  0
   22.3876   39.9782    5.1209 C   0  0  0  0  0  0
   22.3443   38.9014    6.0184 N   0  0  0  0  0  0
   19.7832   40.7849    7.2022 S   0  0  0  0  0  0
   29.5754   42.6377    3.4485 H   0  0  0  0  0  0
   28.8779   44.1087    3.1430 H   0  0  0  0  0  0
   16.2424   40.0915    8.1968 H   0  0  0  0  0  0
   17.1912   41.4530    8.7700 H   0  0  0  0  0  0
   17.6610   39.8188    9.1844 H   0  0  0  0  0  0
   16.7535   39.6380    5.5913 H   0  0  0  0  0  0
   18.6609   39.8687    3.8793 H   0  0  0  0  0  0
   20.5776   42.4410    3.6577 H   0  0  0  0  0  0
   25.7696   39.6339    3.5163 H   0  0  0  0  0  0
   26.1689   40.1140    1.9001 H   0  0  0  0  0  0
   27.0583   41.4218    4.5375 H   0  0  0  0  0  0
   28.1093   40.5106    3.4960 H   0  0  0  0  0  0
   27.4353   41.7191    0.6725 H   0  0  0  0  0  0
   28.4020   43.1774    0.8023 H   0  0  0  0  0  0
   29.0603   41.6296    1.3282 H   0  0  0  0  0  0
   26.5090   44.3615    2.2216 H   0  0  0  0  0  0
   26.0976   43.6742    3.7599 H   0  0  0  0  0  0
   25.2711   42.4494    1.0521 H   0  0  0  0  0  0
   24.2873   43.3699    2.1484 H   0  0  0  0  0  0
   21.4706   38.6856    6.4772 H   0  0  0  0  0  0
   23.1800   38.3831    6.2806 H   0  0  0  0  0  0
   28.4820   43.2750    4.4985 H   0  0  0  0  0  0
   24.3243   39.6329    4.6190 H   0  0  0  0  0  0
  1  2  1  0  0  0
  1 24  1  0  0  0
  1 25  1  0  0  0
  1 26  1  0  0  0
  2 21  1  0  0  0
  2  3  2  0  0  0
  3  4  1  0  0  0
  3 27  1  0  0  0
  4  5  2  0  0  0
  4 28  1  0  0  0
  5  6  1  0  0  0
  5 21  1  0  0  0
  6 19  1  0  0  0
  6  7  2  0  0  0
  7  8  1  0  0  0
  7 29  1  0  0  0
  8  9  2  0  0  0
  9 10  1  0  0  0
  9 18  1  0  0  0
 10 17  1  0  0  0
 10 11  1  0  0  0
 11 12  1  0  0  0
 11 30  1  0  0  0
 11 31  1  0  0  0
 12 13  1  0  0  0
 12 32  1  0  0  0
 12 33  1  0  0  0
 13 14  1  0  0  0
 13 15  1  0  0  0
 13 16  1  0  0  0
 14 34  1  0  0  0
 14 35  1  0  0  0
 14 36  1  0  0  0
 15 22  1  0  0  0
 15 23  1  0  0  0
 15 43  1  0  0  0
 16 17  1  0  0  0
 16 37  1  0  0  0
 16 38  1  0  0  0
 17 39  1  0  0  0
 17 40  1  0  0  0
 18 19  2  0  0  0
 18 44  1  0  0  0
 19 20  1  0  0  0
 20 41  1  0  0  0
 20 42  1  0  0  0
M  CHG  2  15   1  18   1
M  END
> <s_m_source_file>
/home/user-home/yujie/0_PBCNetv2/data/FEP/shp2/inp_ligprep.csv

> <i_m_source_file_index>
17

> <i_lp_mmshare_version>
51139

> <i_f3d_flags>
0

> <s_epik_input>
W0NIM11jMVtjSF1bY0hdYyhzMSktYzJbY0hdbmMobmMyW05IMl0pTihbQ0gyXVtDSDJdMylbQ0gyXVtDSDJdQzMoW0NIM10pW05IMl0=

> <s_epik_cmdline>
J2VwaWtfcHl0aG9uJywgJy1waHQnLCAnMi4wJywgJy1waCcsICc3LjQnLCAnLXRuJywgJzgnLCAnLW1hJywgJzIwMCcsICctaW1hZScsICc8aW5maWxlLm1hZT4nLCAnLW9tYWUnLCAnPG91dGZpbGUubWFlPic=

> <r_lp_tautomer_probability>
0.424989

> <r_epik_Ionization_Penalty>
  1.7291

> <r_epik_Ionization_Penalty_Charging>
  1.7290

> <r_epik_Ionization_Penalty_Neutral>
  0.0001

> <r_epik_State_Penalty>
  1.6499

> <r_epik_Charging_Adjusted_Penalty>
3.37888

> <i_epik_Tot_Q>
2

> <i_epik_Tot_abs_Q>
2

> <s_lp_Force_Field>
OPLS3e

> <r_lp_Energy>
35.7291

> <b_lp_Chiralities_Consistent>
1

> <s_lp_Variant>
lig_shp2_Example4-3

> <s_i_glide_gridfile>
shp2-001-gridgen

> <i_i_glide_lignum>
46

> <i_i_glide_rotatable_bonds>
2

> <r_i_docking_score>
-5.39818641817117

> <r_i_glide_ligand_efficiency>
-0.257056496103389

> <r_i_glide_ligand_efficiency_sa>
-0.709199381075736

> <r_i_glide_ligand_efficiency_ln>
-1.33469068383008

> <r_i_glide_gscore>
-7.04806641817118

> <r_i_glide_lipo>
-1.96438019672533

> <r_i_glide_hbond>
-0.150741244129922

> <r_i_glide_metal>
-0

> <r_i_glide_rewards>
-1.83344334294354

> <r_i_glide_evdw>
-37.5400848388672

> <r_i_glide_ecoul>
-10.7086353302002

> <r_i_glide_erotb>
0.395673572366958

> <r_i_glide_esite>
-0.0118756652659532

> <r_i_glide_emodel>
-78.0695814475987

> <r_i_glide_energy>
-48.2487201690674

> <r_i_glide_einternal>
2.49673509597778

> <i_i_glide_confnum>
8

> <i_i_glide_posenum>
360

> <r_i_glide_eff_state_penalty>
1.64988

$$$$
