lig_cmet_CHEMBL3402742_23
                    3D
 Schrodinger Suite 2020-3.
 56 58  0  0  1  0            999 V2000
  -25.5733   23.4930   97.0293 C   0  0  0  0  0  0
  -26.2278   22.4401   97.8029 N   0  0  0  0  0  0
  -27.6384   22.3102   97.4517 C   0  0  0  0  0  0
  -25.5024   21.1671   97.7608 C   0  0  0  0  0  0
  -25.4921   20.4496   96.3878 C   0  0  0  0  0  0
  -24.3269   19.4642   96.2325 C   0  0  0  0  0  0
  -23.1130   20.2088   96.2158 O   0  0  0  0  0  0
  -21.9618   19.6788   96.6522 C   0  0  0  0  0  0
  -21.8248   18.5096   97.0146 O   0  0  0  0  0  0
  -21.0029   20.6809   96.6584 N   0  0  0  0  0  0
  -19.6888   20.6552   97.1540 C   0  0  0  0  0  0
  -19.0810   19.5351   97.7454 C   0  0  0  0  0  0
  -17.7765   19.6154   98.2310 C   0  0  0  0  0  0
  -17.0751   20.8168   98.1537 C   0  0  0  0  0  0
  -17.6728   21.9418   97.5803 C   0  0  0  0  0  0
  -16.9173   23.2628   97.5081 C   0  0  0  0  0  0
  -17.2214   24.1473   98.6472 N   0  0  0  0  0  0
  -18.3364   24.9179   98.5120 N   0  0  0  0  0  0
  -18.8438   25.7074   99.3851 C   0  0  0  0  0  0
  -20.0546   26.4979   99.0214 C   0  0  0  0  0  0
  -20.8608   26.1124   97.9335 C   0  0  0  0  0  0
  -21.9756   26.8609   97.5601 C   0  0  0  0  0  0
  -22.7246   26.4737   96.5034 F   0  0  0  0  0  0
  -22.3108   28.0112   98.2673 C   0  0  0  0  0  0
  -21.5355   28.4077   99.3534 C   0  0  0  0  0  0
  -21.8513   29.5321  100.0337 F   0  0  0  0  0  0
  -20.4262   27.6530   99.7329 C   0  0  0  0  0  0
  -18.2938   25.8822  100.8143 C   0  0  0  0  0  0
  -16.8250   24.9093  101.3115 S   0  0  0  0  0  0
  -16.4043   24.0103   99.7797 C   0  0  0  0  0  0
  -15.3926   23.3047   99.8162 O   0  0  0  0  0  0
  -18.9718   21.8518   97.0721 C   0  0  0  0  0  0
  -24.5212   23.5805   97.3043 H   0  0  0  0  0  0
  -26.0386   24.4580   97.2313 H   0  0  0  0  0  0
  -25.6266   23.3156   95.9552 H   0  0  0  0  0  0
  -28.1216   21.5528   98.0704 H   0  0  0  0  0  0
  -28.1624   23.2518   97.6196 H   0  0  0  0  0  0
  -27.7709   22.0322   96.4044 H   0  0  0  0  0  0
  -24.4855   21.3156   98.1281 H   0  0  0  0  0  0
  -25.9578   20.5089   98.5026 H   0  0  0  0  0  0
  -26.4031   19.8526   96.3276 H   0  0  0  0  0  0
  -25.5566   21.1380   95.5464 H   0  0  0  0  0  0
  -24.3506   18.7364   97.0458 H   0  0  0  0  0  0
  -24.4229   18.9080   95.3003 H   0  0  0  0  0  0
  -21.3184   21.5697   96.3007 H   0  0  0  0  0  0
  -19.5861   18.5853   97.8222 H   0  0  0  0  0  0
  -17.3133   18.7437   98.6707 H   0  0  0  0  0  0
  -16.0690   20.8735   98.5454 H   0  0  0  0  0  0
  -15.8471   23.0757   97.3904 H   0  0  0  0  0  0
  -17.1827   23.7727   96.5806 H   0  0  0  0  0  0
  -20.6296   25.2288   97.3573 H   0  0  0  0  0  0
  -23.1722   28.5935   97.9776 H   0  0  0  0  0  0
  -19.8651   28.0008  100.5877 H   0  0  0  0  0  0
  -19.0814   25.6879  101.5436 H   0  0  0  0  0  0
  -17.9841   26.9075  100.9628 H   0  0  0  0  0  0
  -19.4282   22.7283   96.6344 H   0  0  0  0  0  0
  1  2  1  0  0  0
  1 33  1  0  0  0
  1 34  1  0  0  0
  1 35  1  0  0  0
  2  3  1  0  0  0
  2  4  1  0  0  0
  3 36  1  0  0  0
  3 37  1  0  0  0
  3 38  1  0  0  0
  4  5  1  0  0  0
  4 39  1  0  0  0
  4 40  1  0  0  0
  5  6  1  0  0  0
  5 41  1  0  0  0
  5 42  1  0  0  0
  6  7  1  0  0  0
  6 43  1  0  0  0
  6 44  1  0  0  0
  7  8  1  0  0  0
  8  9  2  0  0  0
  8 10  1  0  0  0
 10 11  1  0  0  0
 10 45  1  0  0  0
 11 32  1  0  0  0
 11 12  2  0  0  0
 12 13  1  0  0  0
 12 46  1  0  0  0
 13 14  2  0  0  0
 13 47  1  0  0  0
 14 15  1  0  0  0
 14 48  1  0  0  0
 15 16  1  0  0  0
 15 32  2  0  0  0
 16 17  1  0  0  0
 16 49  1  0  0  0
 16 50  1  0  0  0
 17 30  1  0  0  0
 17 18  1  0  0  0
 18 19  2  0  0  0
 19 20  1  0  0  0
 19 28  1  0  0  0
 20 27  1  0  0  0
 20 21  2  0  0  0
 21 22  1  0  0  0
 21 51  1  0  0  0
 22 23  1  0  0  0
 22 24  2  0  0  0
 24 25  1  0  0  0
 24 52  1  0  0  0
 25 26  1  0  0  0
 25 27  2  0  0  0
 27 53  1  0  0  0
 28 29  1  0  0  0
 28 54  1  0  0  0
 28 55  1  0  0  0
 29 30  1  0  0  0
 30 31  2  0  0  0
 32 56  1  0  0  0
M  END
> <s_m_source_file>
/home/user-home/yujie/0_PBCNetv2/data/FEP/cmet/inp_ligprep.csv

> <i_m_source_file_index>
21

> <i_lp_mmshare_version>
51139

> <i_f3d_flags>
0

> <s_epik_input>
W0NIM11OKFtDSDNdKVtDSDJdW0NIMl1bQ0gyXU9DKD1PKVtOSF1jMVtjSF1bY0hdW2NIXWMoW2NIXTEpW0NIMl1OMk49QyhbQ0gyXVNDMj1PKWMzW2NIXWMoRilbY0hdYyhGKVtjSF0z

> <s_epik_cmdline>
J2VwaWtfcHl0aG9uJywgJy1waHQnLCAnMi4wJywgJy1waCcsICc3LjQnLCAnLXRuJywgJzgnLCAnLW1hJywgJzIwMCcsICctaW1hZScsICc8aW5maWxlLm1hZT4nLCAnLW9tYWUnLCAnPG91dGZpbGUubWFlPic=

> <r_epik_Ionization_Penalty>
  2.3512

> <r_epik_Ionization_Penalty_Charging>
  0.0000

> <r_epik_Ionization_Penalty_Neutral>
  2.3512

> <r_epik_State_Penalty>
  2.5055

> <r_epik_Charging_Adjusted_Penalty>
2.50554

> <i_epik_Tot_Q>
0

> <i_epik_Tot_abs_Q>
0

> <s_epik_Chemistry_Notes>
This compound has an ester and may undergo hydrolysis at high or low pH. This compound has an imine and may undergo hydrolysis.

> <s_lp_Force_Field>
OPLS3e

> <r_lp_Energy>
47.3941

> <b_lp_Chiralities_Consistent>
1

> <s_lp_Variant>
lig_cmet_CHEMBL3402742_23-2

> <s_i_glide_gridfile>
cmet-001-gridgen

> <i_i_glide_lignum>
32

> <i_i_glide_rotatable_bonds>
10

> <r_i_docking_score>
-8.08830894261574

> <r_i_glide_ligand_efficiency>
-0.252759654456742

> <r_i_glide_ligand_efficiency_sa>
-0.802461881832461

> <r_i_glide_ligand_efficiency_ln>
-1.81119285122635

> <r_i_glide_gscore>
-10.5938489426157

> <r_i_glide_lipo>
-3.85763598182247

> <r_i_glide_hbond>
-0.380991084641129

> <r_i_glide_metal>
-0

> <r_i_glide_rewards>
-2.45032113681734

> <r_i_glide_evdw>
-61.3340034484863

> <r_i_glide_ecoul>
-11.2222585678101

> <r_i_glide_erotb>
0.847521599740508

> <r_i_glide_esite>
-0.0023833814794776

> <r_i_glide_emodel>
-111.280156186977

> <r_i_glide_energy>
-72.5562620162964

> <r_i_glide_einternal>
5.62273645401001

> <i_i_glide_confnum>
214

> <i_i_glide_posenum>
69

> <r_i_glide_eff_state_penalty>
2.50554

$$$$
