lig_cmet_CHEMBL3402747_3400
                    3D
 Schrodinger Suite 2024-1.
 42 45  0  0  1  0            999 V2000
  -23.5016   27.2944   98.0306 C   0  0  0  0  0  0
  -22.1296   27.1997   98.5864 C   0  0  0  0  0  0
  -21.5919   28.2191   99.2347 N   0  0  0  0  0  0
  -20.3438   27.7216   99.6265 O   0  0  0  0  0  0
  -20.2622   26.4658   99.1310 C   0  0  0  0  0  0
  -21.3468   26.0955   98.4523 N   0  0  0  0  0  0
  -19.0321   25.7149   99.3419 C   0  0  0  0  0  0
  -18.2392   25.8725  100.4975 C   0  0  0  0  0  0
  -17.0728   25.0983  100.6683 C   0  0  0  0  0  0
  -16.6746   24.1871   99.6723 C   0  0  0  0  0  0
  -17.4507   24.0604   98.5051 C   0  0  0  0  0  0
  -17.0587   23.1251   97.3885 C   0  0  0  0  0  0
  -17.7131   21.8217   97.5038 N   0  0  0  0  0  0
  -19.0147   21.7613   97.0561 N   0  0  0  0  0  0
  -19.7127   20.6823   97.1994 C   0  0  0  0  0  0
  -19.0832   19.5000   97.7516 C   0  0  0  0  0  0
  -17.8219   19.5776   98.2099 C   0  0  0  0  0  0
  -17.0747   20.8167   98.1421 C   0  0  0  0  0  0
  -15.9622   20.9601   98.6150 O   0  0  0  0  0  0
  -21.1531   20.7336   96.8737 C   0  0  0  0  0  0
  -21.8907   19.5471   96.7051 C   0  0  0  0  0  0
  -23.2919   19.6151   96.6150 C   0  0  0  0  0  0
  -24.0142   18.4905   96.5170 F   0  0  0  0  0  0
  -23.9658   20.8386   96.6752 C   0  0  0  0  0  0
  -23.2283   22.0184   96.8464 C   0  0  0  0  0  0
  -23.8800   23.1949   97.0055 F   0  0  0  0  0  0
  -21.8219   21.9758   96.9147 C   0  0  0  0  0  0
  -18.6247   24.8116   98.3535 C   0  0  0  0  0  0
  -23.9126   26.2993   97.8587 H   0  0  0  0  0  0
  -23.4882   27.8355   97.0849 H   0  0  0  0  0  0
  -24.1580   27.8191   98.7253 H   0  0  0  0  0  0
  -18.5368   26.5613  101.2732 H   0  0  0  0  0  0
  -16.4792   25.2125  101.5637 H   0  0  0  0  0  0
  -15.7750   23.6024   99.7973 H   0  0  0  0  0  0
  -17.3369   23.5837   96.4410 H   0  0  0  0  0  0
  -15.9707   23.0496   97.3401 H   0  0  0  0  0  0
  -19.6099   18.5606   97.8152 H   0  0  0  0  0  0
  -17.3520   18.6996   98.6296 H   0  0  0  0  0  0
  -21.4178   18.5784   96.6727 H   0  0  0  0  0  0
  -25.0445   20.8699   96.6342 H   0  0  0  0  0  0
  -21.2925   22.9029   97.0847 H   0  0  0  0  0  0
  -19.2210   24.6948   97.4598 H   0  0  0  0  0  0
  1  2  1  0  0  0
  1 29  1  0  0  0
  1 30  1  0  0  0
  1 31  1  0  0  0
  2  6  1  0  0  0
  2  3  2  0  0  0
  3  4  1  0  0  0
  4  5  1  0  0  0
  5  6  2  0  0  0
  5  7  1  0  0  0
  7 28  1  0  0  0
  7  8  2  0  0  0
  8  9  1  0  0  0
  8 32  1  0  0  0
  9 10  2  0  0  0
  9 33  1  0  0  0
 10 11  1  0  0  0
 10 34  1  0  0  0
 11 12  1  0  0  0
 11 28  2  0  0  0
 12 13  1  0  0  0
 12 35  1  0  0  0
 12 36  1  0  0  0
 13 18  1  0  0  0
 13 14  1  0  0  0
 14 15  2  0  0  0
 15 16  1  0  0  0
 15 20  1  0  0  0
 16 17  2  0  0  0
 16 37  1  0  0  0
 17 18  1  0  0  0
 17 38  1  0  0  0
 18 19  2  0  0  0
 20 27  1  0  0  0
 20 21  2  0  0  0
 21 22  1  0  0  0
 21 39  1  0  0  0
 22 23  1  0  0  0
 22 24  2  0  0  0
 24 25  1  0  0  0
 24 40  1  0  0  0
 25 26  1  0  0  0
 25 27  2  0  0  0
 27 41  1  0  0  0
 28 42  1  0  0  0
M  END
> <Tot Q>
0

> <flags>
0

> <Source File Index>
1

> <subgroup collapsed>
0

> <Ionization Penalty>
0

> <State Penalty>
0

> <docking score>
-8.69906

> <glide emodel>
-41.6261

> <glide gscore>
-8.69906

> <tautomer probability>
1

> <Source File>
glide-dock_SP_11_pv.maegz

> <Source Path>
C:\Users\yujie\Documents\Schrodinger\glide-dock_SP_11

> <entry id>
11489

> <job name>
glide-dock_SP_11

> <subgroup title>
glide-dock_SP_11_pv

> <subgroupid>
glide-dock_SP_11_pv

$$$$
