lig_cmet_CHEMBL3402753_200
                    3D
 Schrodinger Suite 2020-3.
 46 49  0  0  1  0            999 V2000
  -25.2479   19.8012   96.0532 C   0  0  0  0  0  0
  -23.7833   20.0261   96.3655 C   0  0  0  0  0  0
  -23.2430   21.3112   96.3959 C   0  0  0  0  0  0
  -21.8890   21.4864   96.6802 C   0  0  0  0  0  0
  -21.0848   20.3632   96.9390 C   0  0  0  0  0  0
  -19.6347   20.4719   97.3323 C   0  0  0  0  0  0
  -18.9252   19.3589   97.8149 C   0  0  0  0  0  0
  -17.6092   19.4673   98.2582 C   0  0  0  0  0  0
  -16.9594   20.6966   98.2128 C   0  0  0  0  0  0
  -17.6155   21.8124   97.6969 C   0  0  0  0  0  0
  -16.8861   23.1469   97.5852 C   0  0  0  0  0  0
  -17.2199   24.0827   98.6715 N   0  0  0  0  0  0
  -18.3654   24.8568   98.4769 N   0  0  0  0  0  0
  -18.7893   25.7014   99.3605 C   0  0  0  0  0  0
  -19.9721   26.5586   99.1288 C   0  0  0  0  0  0
  -20.1478   27.7717   99.8150 C   0  0  0  0  0  0
  -21.2481   28.5875   99.5550 C   0  0  0  0  0  0
  -21.3822   29.7642  100.2068 F   0  0  0  0  0  0
  -22.1995   28.1965   98.6161 C   0  0  0  0  0  0
  -22.0543   26.9890   97.9400 C   0  0  0  0  0  0
  -22.9771   26.6052   97.0302 F   0  0  0  0  0  0
  -20.9497   26.1770   98.1959 C   0  0  0  0  0  0
  -18.0199   25.7895  100.5902 C   0  0  0  0  0  0
  -16.9141   25.0349  100.7901 C   0  0  0  0  0  0
  -16.4086   24.1086   99.7887 C   0  0  0  0  0  0
  -15.3681   23.4623   99.9419 O   0  0  0  0  0  0
  -18.9382   21.6928   97.2583 C   0  0  0  0  0  0
  -21.6175   19.1056   96.9008 N   0  0  0  0  0  0
  -22.9328   18.9496   96.6150 C   0  0  0  0  0  0
  -25.3653   18.9100   95.4360 H   0  0  0  0  0  0
  -25.6691   20.6351   95.4872 H   0  0  0  0  0  0
  -25.8224   19.6640   96.9720 H   0  0  0  0  0  0
  -23.8636   22.1751   96.2090 H   0  0  0  0  0  0
  -21.5031   22.4924   96.7200 H   0  0  0  0  0  0
  -19.3948   18.3885   97.8668 H   0  0  0  0  0  0
  -17.0978   18.5956   98.6404 H   0  0  0  0  0  0
  -15.9391   20.7762   98.5618 H   0  0  0  0  0  0
  -15.8107   22.9761   97.5038 H   0  0  0  0  0  0
  -17.1445   23.6058   96.6291 H   0  0  0  0  0  0
  -19.4209   28.1241  100.5305 H   0  0  0  0  0  0
  -23.0550   28.8246   98.4202 H   0  0  0  0  0  0
  -20.8589   25.2472   97.6510 H   0  0  0  0  0  0
  -18.3137   26.4578  101.3877 H   0  0  0  0  0  0
  -16.3692   25.1163  101.7194 H   0  0  0  0  0  0
  -19.4163   22.5779   96.8728 H   0  0  0  0  0  0
  -23.3081   17.9366   96.6104 H   0  0  0  0  0  0
  1  2  1  0  0  0
  1 30  1  0  0  0
  1 31  1  0  0  0
  1 32  1  0  0  0
  2 29  1  0  0  0
  2  3  2  0  0  0
  3  4  1  0  0  0
  3 33  1  0  0  0
  4  5  2  0  0  0
  4 34  1  0  0  0
  5  6  1  0  0  0
  5 28  1  0  0  0
  6 27  1  0  0  0
  6  7  2  0  0  0
  7  8  1  0  0  0
  7 35  1  0  0  0
  8  9  2  0  0  0
  8 36  1  0  0  0
  9 10  1  0  0  0
  9 37  1  0  0  0
 10 11  1  0  0  0
 10 27  2  0  0  0
 11 12  1  0  0  0
 11 38  1  0  0  0
 11 39  1  0  0  0
 12 25  1  0  0  0
 12 13  1  0  0  0
 13 14  2  0  0  0
 14 15  1  0  0  0
 14 23  1  0  0  0
 15 22  1  0  0  0
 15 16  2  0  0  0
 16 17  1  0  0  0
 16 40  1  0  0  0
 17 18  1  0  0  0
 17 19  2  0  0  0
 19 20  1  0  0  0
 19 41  1  0  0  0
 20 21  1  0  0  0
 20 22  2  0  0  0
 22 42  1  0  0  0
 23 24  2  0  0  0
 23 43  1  0  0  0
 24 25  1  0  0  0
 24 44  1  0  0  0
 25 26  2  0  0  0
 27 45  1  0  0  0
 28 29  2  0  0  0
 29 46  1  0  0  0
M  END
> <s_m_source_file>
/home/user-home/yujie/0_PBCNetv2/data/FEP/cmet/inp_ligprep.csv

> <i_m_source_file_index>
16

> <i_lp_mmshare_version>
51139

> <i_f3d_flags>
0

> <s_epik_input>
W0NIM11jMVtjSF1bY0hdYyhuW2NIXTEpLWMyW2NIXVtjSF1bY0hdYyhbY0hdMilbQ0gyXW4zbmMoW2NIXVtjSF1jMz1PKS1jNFtjSF1jKEYpW2NIXWMoRilbY0hdNA==

> <s_epik_cmdline>
J2VwaWtfcHl0aG9uJywgJy1waHQnLCAnMi4wJywgJy1waCcsICc3LjQnLCAnLXRuJywgJzgnLCAnLW1hJywgJzIwMCcsICctaW1hZScsICc8aW5maWxlLm1hZT4nLCAnLW9tYWUnLCAnPG91dGZpbGUubWFlPic=

> <r_lp_tautomer_probability>
1

> <r_epik_Ionization_Penalty>
  0.0052

> <r_epik_Ionization_Penalty_Charging>
  0.0000

> <r_epik_Ionization_Penalty_Neutral>
  0.0052

> <r_epik_State_Penalty>
  0.0038

> <r_epik_Charging_Adjusted_Penalty>
0.00380149

> <i_epik_Tot_Q>
0

> <i_epik_Tot_abs_Q>
0

> <s_lp_Force_Field>
OPLS3e

> <r_lp_Energy>
59.854

> <b_lp_Chiralities_Consistent>
1

> <s_lp_Variant>
lig_cmet_CHEMBL3402753_200-1

> <s_i_glide_gridfile>
cmet-001-gridgen

> <i_i_glide_lignum>
26

> <i_i_glide_rotatable_bonds>
4

> <r_i_docking_score>
-11.0012417955743

> <r_i_glide_ligand_efficiency>
-0.379353165364632

> <r_i_glide_ligand_efficiency_sa>
-1.16549311151876

> <r_i_glide_ligand_efficiency_ln>
-2.51900540376456

> <r_i_glide_gscore>
-11.0050432655743

> <r_i_glide_lipo>
-5.12301786158

> <r_i_glide_hbond>
-0.322315117447209

> <r_i_glide_metal>
-0

> <r_i_glide_rewards>
-2.21161670407688

> <r_i_glide_evdw>
-56.5810966491699

> <r_i_glide_ecoul>
-6.86835622787476

> <r_i_glide_erotb>
0.514246563956355

> <r_i_glide_esite>
-0.00303187978689501

> <r_i_glide_emodel>
-104.515164604679

> <r_i_glide_energy>
-63.4494528770447

> <r_i_glide_einternal>
0.880132079124451

> <i_i_glide_confnum>
50

> <i_i_glide_posenum>
250

> <r_i_glide_eff_state_penalty>
0.00380147

$$$$
