lig_cmet_CHEMBL3402749_500
                    3D
 Schrodinger Suite 2020-3.
 43 46  0  0  1  0            999 V2000
  -24.3872   21.3799   96.6187 C   0  0  0  0  0  0
  -23.1557   20.5149   96.7100 C   0  0  0  0  0  0
  -22.8998   19.1586   96.6158 C   0  0  0  0  0  0
  -21.6201   18.9104   96.8026 N   0  0  0  0  0  0
  -21.0807   20.0913   97.0142 C   0  0  0  0  0  0
  -19.6618   20.3872   97.3760 C   0  0  0  0  0  0
  -18.8338   19.3489   97.8156 C   0  0  0  0  0  0
  -17.5273   19.6050   98.2262 C   0  0  0  0  0  0
  -17.0229   20.9027   98.1713 C   0  0  0  0  0  0
  -17.8213   21.9468   97.6990 C   0  0  0  0  0  0
  -17.2418   23.3504   97.5641 C   0  0  0  0  0  0
  -17.5981   24.2511   98.6751 N   0  0  0  0  0  0
  -18.7406   25.0415   98.4895 N   0  0  0  0  0  0
  -19.1062   25.9446   99.3448 C   0  0  0  0  0  0
  -20.2693   26.8421   99.1214 C   0  0  0  0  0  0
  -20.4179   28.0568   99.8116 C   0  0  0  0  0  0
  -21.4928   28.9064   99.5535 C   0  0  0  0  0  0
  -21.5909   30.0866  100.2064 F   0  0  0  0  0  0
  -22.4525   28.5466   98.6130 C   0  0  0  0  0  0
  -22.3359   27.3379   97.9321 C   0  0  0  0  0  0
  -23.2655   26.9889   97.0151 F   0  0  0  0  0  0
  -21.2552   26.4941   98.1837 C   0  0  0  0  0  0
  -18.2929   26.0538  100.5451 C   0  0  0  0  0  0
  -17.2173   25.2593  100.7551 C   0  0  0  0  0  0
  -16.7694   24.2781   99.7823 C   0  0  0  0  0  0
  -15.7420   23.6124   99.9433 O   0  0  0  0  0  0
  -19.1410   21.6861   97.3062 C   0  0  0  0  0  0
  -21.9708   21.1192   96.9594 O   0  0  0  0  0  0
  -25.2819   20.7891   96.4279 H   0  0  0  0  0  0
  -24.3078   22.1099   95.8152 H   0  0  0  0  0  0
  -24.5598   21.9323   97.5412 H   0  0  0  0  0  0
  -23.6197   18.3779   96.4122 H   0  0  0  0  0  0
  -19.2091   18.3355   97.8543 H   0  0  0  0  0  0
  -16.9076   18.7957   98.5861 H   0  0  0  0  0  0
  -16.0074   21.0921   98.4876 H   0  0  0  0  0  0
  -16.1603   23.2960   97.4258 H   0  0  0  0  0  0
  -17.5963   23.7778   96.6245 H   0  0  0  0  0  0
  -19.6921   28.3897  100.5399 H   0  0  0  0  0  0
  -23.2849   29.2047   98.4138 H   0  0  0  0  0  0
  -21.1922   25.5646   97.6329 H   0  0  0  0  0  0
  -18.5215   26.7641  101.3213 H   0  0  0  0  0  0
  -16.6384   25.3607  101.6629 H   0  0  0  0  0  0
  -19.7628   22.4995   96.9567 H   0  0  0  0  0  0
  1  2  1  0  0  0
  1 29  1  0  0  0
  1 30  1  0  0  0
  1 31  1  0  0  0
  2 28  1  0  0  0
  2  3  2  0  0  0
  3  4  1  0  0  0
  3 32  1  0  0  0
  4  5  2  0  0  0
  5  6  1  0  0  0
  5 28  1  0  0  0
  6 27  1  0  0  0
  6  7  2  0  0  0
  7  8  1  0  0  0
  7 33  1  0  0  0
  8  9  2  0  0  0
  8 34  1  0  0  0
  9 10  1  0  0  0
  9 35  1  0  0  0
 10 11  1  0  0  0
 10 27  2  0  0  0
 11 12  1  0  0  0
 11 36  1  0  0  0
 11 37  1  0  0  0
 12 25  1  0  0  0
 12 13  1  0  0  0
 13 14  2  0  0  0
 14 15  1  0  0  0
 14 23  1  0  0  0
 15 22  1  0  0  0
 15 16  2  0  0  0
 16 17  1  0  0  0
 16 38  1  0  0  0
 17 18  1  0  0  0
 17 19  2  0  0  0
 19 20  1  0  0  0
 19 39  1  0  0  0
 20 21  1  0  0  0
 20 22  2  0  0  0
 22 40  1  0  0  0
 23 24  2  0  0  0
 23 41  1  0  0  0
 24 25  1  0  0  0
 24 42  1  0  0  0
 25 26  2  0  0  0
 27 43  1  0  0  0
M  END
> <s_m_source_file>
/home/user-home/yujie/0_PBCNetv2/data/FEP/cmet/inp_ligprep.csv

> <i_m_source_file_index>
5

> <i_lp_mmshare_version>
51139

> <i_f3d_flags>
0

> <s_epik_input>
W0NIM11jMVtjSF1uYyhvMSktYzJbY0hdW2NIXVtjSF1jKFtjSF0yKVtDSDJdbjNuYyhbY0hdW2NIXWMzPU8pLWM0W2NIXWMoRilbY0hdYyhGKVtjSF00

> <s_epik_cmdline>
J2VwaWtfcHl0aG9uJywgJy1waHQnLCAnMi4wJywgJy1waCcsICc3LjQnLCAnLXRuJywgJzgnLCAnLW1hJywgJzIwMCcsICctaW1hZScsICc8aW5maWxlLm1hZT4nLCAnLW9tYWUnLCAnPG91dGZpbGUubWFlPic=

> <r_lp_tautomer_probability>
1

> <r_epik_Ionization_Penalty>
  0.0000

> <r_epik_Ionization_Penalty_Charging>
  0.0000

> <r_epik_Ionization_Penalty_Neutral>
  0.0000

> <r_epik_State_Penalty>
 -0.0000

> <r_epik_Charging_Adjusted_Penalty>
1.65007e-08

> <i_epik_Tot_Q>
0

> <i_epik_Tot_abs_Q>
0

> <s_lp_Force_Field>
OPLS3e

> <r_lp_Energy>
49.1365

> <b_lp_Chiralities_Consistent>
1

> <s_lp_Variant>
lig_cmet_CHEMBL3402749_500-1

> <s_i_glide_gridfile>
cmet-001-gridgen

> <i_i_glide_lignum>
7

> <i_i_glide_rotatable_bonds>
4

> <r_i_docking_score>
-10.1052563499029

> <r_i_glide_ligand_efficiency>
-0.360902012496533

> <r_i_glide_ligand_efficiency_sa>
-1.09591106985744

> <r_i_glide_ligand_efficiency_ln>
-2.33258986877659

> <r_i_glide_gscore>
-10.1052563499029

> <r_i_glide_lipo>
-4.55221328974372

> <r_i_glide_hbond>
-0.264852082910326

> <r_i_glide_metal>
-0

> <r_i_glide_rewards>
-2.29572426036517

> <r_i_glide_evdw>
-53.0506973266602

> <r_i_glide_ecoul>
-5.82458925247192

> <r_i_glide_erotb>
0.538906920180458

> <r_i_glide_esite>
-0.00515038286037538

> <r_i_glide_emodel>
-92.8207916254464

> <r_i_glide_energy>
-58.8752865791321

> <r_i_glide_einternal>
2.38270592689514

> <i_i_glide_confnum>
4

> <i_i_glide_posenum>
126

> <r_i_glide_eff_state_penalty>
-0

$$$$
