lig_cmet_CHEMBL3402741_400
                    3D
 Schrodinger Suite 2024-1.
 71 73  0  0  1  0            999 V2000
  -23.2555   25.2822   98.6377 C   0  0  0  0  0  0
  -24.6050   26.0179   98.5340 C   0  0  0  0  0  0
  -25.2449   25.9675   97.1837 N   0  3  0  0  0  0
  -24.7048   27.0350   96.2948 C   0  0  0  0  0  0
  -25.5795   27.3238   95.0629 C   0  0  0  0  0  0
  -25.2321   24.6217   96.5323 C   0  0  0  0  0  0
  -26.0001   23.5069   97.2875 C   0  0  0  0  0  0
  -25.4851   22.0963   96.9296 C   0  0  0  0  0  0
  -24.1301   22.0922   97.3254 O   0  0  0  0  0  0
  -23.2493   21.2327   96.8199 C   0  0  0  0  0  0
  -23.5162   20.1619   96.2847 O   0  0  0  0  0  0
  -22.0291   21.8609   96.9403 N   0  0  0  0  0  0
  -20.7186   21.3452   96.8935 C   0  0  0  0  0  0
  -20.3944   19.9723   96.8472 C   0  0  0  0  0  0
  -19.0422   19.5809   96.9418 C   0  0  0  0  0  0
  -18.0243   20.5493   97.0916 C   0  0  0  0  0  0
  -18.3456   21.9251   97.1294 C   0  0  0  0  0  0
  -17.2569   22.9899   97.2990 C   0  0  0  0  0  0
  -17.4558   23.9058   98.4389 N   0  0  0  0  0  0
  -18.4243   24.8656   98.2316 N   0  0  0  0  0  0
  -18.8141   25.7541   99.0816 C   0  0  0  0  0  0
  -18.2506   25.9141  100.4676 C   0  0  0  0  0  0
  -16.8117   24.9307  100.9384 S   0  0  0  0  0  0
  -16.5451   23.8566   99.5089 C   0  0  0  0  0  0
  -15.5491   23.1315   99.5356 O   0  0  0  0  0  0
  -19.8828   26.7185   98.6819 C   0  0  0  0  0  0
  -20.5369   27.4943   99.6589 C   0  0  0  0  0  0
  -21.5012   28.4390   99.2812 C   0  0  0  0  0  0
  -21.8348   28.6377   97.9218 C   0  0  0  0  0  0
  -22.8082   29.5469   97.5708 O   0  0  0  0  0  0
  -22.8864   30.7331   98.3612 C   0  0  0  0  0  0
  -21.1917   27.8421   96.9254 C   0  0  0  0  0  0
  -21.4415   27.9303   95.5676 O   0  0  0  0  0  0
  -21.8062   29.2077   95.0498 C   0  0  0  0  0  0
  -20.2351   26.8775   97.3194 C   0  0  0  0  0  0
  -19.6959   22.3039   97.0007 C   0  0  0  0  0  0
  -22.7649   25.5221   99.5828 H   0  0  0  0  0  0
  -22.5727   25.5677   97.8415 H   0  0  0  0  0  0
  -23.3722   24.2023   98.6150 H   0  0  0  0  0  0
  -25.2891   25.6170   99.2824 H   0  0  0  0  0  0
  -24.4628   27.0602   98.8234 H   0  0  0  0  0  0
  -24.6284   27.9686   96.8533 H   0  0  0  0  0  0
  -23.6926   26.7770   95.9831 H   0  0  0  0  0  0
  -25.2000   28.2004   94.5357 H   0  0  0  0  0  0
  -25.5768   26.5066   94.3420 H   0  0  0  0  0  0
  -26.6120   27.5394   95.3400 H   0  0  0  0  0  0
  -25.6573   24.6729   95.5317 H   0  0  0  0  0  0
  -24.1902   24.3474   96.3748 H   0  0  0  0  0  0
  -25.9110   23.6278   98.3634 H   0  0  0  0  0  0
  -27.0661   23.5742   97.0687 H   0  0  0  0  0  0
  -26.0330   21.3197   97.4656 H   0  0  0  0  0  0
  -25.5780   21.9053   95.8588 H   0  0  0  0  0  0
  -22.1076   22.8136   97.2486 H   0  0  0  0  0  0
  -21.1648   19.2175   96.7678 H   0  0  0  0  0  0
  -18.7855   18.5301   96.9192 H   0  0  0  0  0  0
  -16.9966   20.2266   97.1835 H   0  0  0  0  0  0
  -16.2848   22.4953   97.3291 H   0  0  0  0  0  0
  -17.2118   23.5942   96.3952 H   0  0  0  0  0  0
  -19.0216   25.7173  101.2110 H   0  0  0  0  0  0
  -17.9513   26.9529  100.6101 H   0  0  0  0  0  0
  -20.3321   27.3987  100.7108 H   0  0  0  0  0  0
  -21.9859   28.9962  100.0724 H   0  0  0  0  0  0
  -23.4478   31.4954   97.8219 H   0  0  0  0  0  0
  -23.4003   30.5551   99.3047 H   0  0  0  0  0  0
  -21.9014   31.1487   98.5780 H   0  0  0  0  0  0
  -21.2415   30.0182   95.5155 H   0  0  0  0  0  0
  -21.6038   29.2461   93.9814 H   0  0  0  0  0  0
  -22.8728   29.3960   95.1663 H   0  0  0  0  0  0
  -19.7420   26.2936   96.5574 H   0  0  0  0  0  0
  -19.9618   23.3485   97.0190 H   0  0  0  0  0  0
  -26.2068   26.2250   97.3527 H   0  0  0  0  0  0
  1  2  1  0  0  0
  1 37  1  0  0  0
  1 38  1  0  0  0
  1 39  1  0  0  0
  2  3  1  0  0  0
  2 40  1  0  0  0
  2 41  1  0  0  0
  3  4  1  0  0  0
  3  6  1  0  0  0
  3 71  1  0  0  0
  4  5  1  0  0  0
  4 42  1  0  0  0
  4 43  1  0  0  0
  5 44  1  0  0  0
  5 45  1  0  0  0
  5 46  1  0  0  0
  6  7  1  0  0  0
  6 47  1  0  0  0
  6 48  1  0  0  0
  7  8  1  0  0  0
  7 49  1  0  0  0
  7 50  1  0  0  0
  8  9  1  0  0  0
  8 51  1  0  0  0
  8 52  1  0  0  0
  9 10  1  0  0  0
 10 11  2  0  0  0
 10 12  1  0  0  0
 12 13  1  0  0  0
 12 53  1  0  0  0
 13 36  1  0  0  0
 13 14  2  0  0  0
 14 15  1  0  0  0
 14 54  1  0  0  0
 15 16  2  0  0  0
 15 55  1  0  0  0
 16 17  1  0  0  0
 16 56  1  0  0  0
 17 18  1  0  0  0
 17 36  2  0  0  0
 18 19  1  0  0  0
 18 57  1  0  0  0
 18 58  1  0  0  0
 19 24  1  0  0  0
 19 20  1  0  0  0
 20 21  2  0  0  0
 21 22  1  0  0  0
 21 26  1  0  0  0
 22 23  1  0  0  0
 22 59  1  0  0  0
 22 60  1  0  0  0
 23 24  1  0  0  0
 24 25  2  0  0  0
 26 35  1  0  0  0
 26 27  2  0  0  0
 27 28  1  0  0  0
 27 61  1  0  0  0
 28 29  2  0  0  0
 28 62  1  0  0  0
 29 30  1  0  0  0
 29 32  1  0  0  0
 30 31  1  0  0  0
 31 63  1  0  0  0
 31 64  1  0  0  0
 31 65  1  0  0  0
 32 33  1  0  0  0
 32 35  2  0  0  0
 33 34  1  0  0  0
 34 66  1  0  0  0
 34 67  1  0  0  0
 34 68  1  0  0  0
 35 69  1  0  0  0
 36 70  1  0  0  0
M  CHG  1   3   1
M  END
> <Source File Index>
1

> <Source File Index>
1

> <Tot Q>
1

> <entry id>
11470

> <flags>
0

> <subgroup collapsed>
0

> <Ionization Penalty>
0.0045

> <State Penalty>
0.0045

> <docking score>
-10.8408

> <glide emodel>
-116.519

> <glide gscore>
-10.8453

> <Source File>
lig_cmet_CHEMBL3402741_400.sdf

> <Source Path>
C:\Users\yujie\Desktop\FEPs

> <entry id>
18264

> <Source File>
glide-dock_SP_10_pv.maegz

> <Source Path>
C:\Users\yujie\Documents\Schrodinger\glide-dock_SP_10

> <job name>
glide-dock_SP_10

> <subgroup title>
glide-dock_SP_10_pv

> <subgroupid>
glide-dock_SP_10_pv

$$$$
