lig_cmet_CHEMBL3402764_90
                    3D
 Schrodinger Suite 2020-3.
 56 58  0  0  1  0            999 V2000
  -26.3428   24.0403   97.0175 C   0  0  0  0  0  0
  -26.1315   22.7192   97.6044 N   0  0  0  0  0  0
  -27.3704   22.2564   98.2304 C   0  0  0  0  0  0
  -25.6381   21.7924   96.5804 C   0  0  0  0  0  0
  -25.2456   20.4174   97.1673 C   0  0  0  0  0  0
  -24.2932   19.6023   96.2755 C   0  0  0  0  0  0
  -23.0300   20.2619   96.2151 O   0  0  0  0  0  0
  -21.9036   19.6964   96.6837 C   0  0  0  0  0  0
  -21.7950   18.5135   97.0143 O   0  0  0  0  0  0
  -20.9215   20.6757   96.7244 N   0  0  0  0  0  0
  -19.6120   20.6159   97.2280 C   0  0  0  0  0  0
  -19.0339   19.4766   97.8131 C   0  0  0  0  0  0
  -17.7265   19.5253   98.2961 C   0  0  0  0  0  0
  -16.9951   20.7096   98.2199 C   0  0  0  0  0  0
  -17.5683   21.8541   97.6591 C   0  0  0  0  0  0
  -16.7838   23.1600   97.5962 C   0  0  0  0  0  0
  -17.1805   24.1045   98.6547 N   0  0  0  0  0  0
  -18.3352   24.8528   98.4027 N   0  0  0  0  0  0
  -18.8184   25.7021   99.2537 C   0  0  0  0  0  0
  -20.0279   26.5143   98.9597 C   0  0  0  0  0  0
  -20.4016   27.6150   99.7491 C   0  0  0  0  0  0
  -21.5166   28.3816   99.4160 C   0  0  0  0  0  0
  -22.2876   28.0445   98.3092 C   0  0  0  0  0  0
  -23.3719   28.7892   97.9932 F   0  0  0  0  0  0
  -21.9513   26.9448   97.5280 C   0  0  0  0  0  0
  -20.8290   26.1847   97.8492 C   0  0  0  0  0  0
  -18.0931   25.8262  100.5119 C   0  0  0  0  0  0
  -16.9788   25.0978  100.7658 C   0  0  0  0  0  0
  -16.4252   24.1540   99.8093 C   0  0  0  0  0  0
  -15.3908   23.5171  100.0259 O   0  0  0  0  0  0
  -18.8698   21.7978   97.1519 C   0  0  0  0  0  0
  -25.4198   24.4216   96.5782 H   0  0  0  0  0  0
  -26.6565   24.7568   97.7785 H   0  0  0  0  0  0
  -27.1046   24.0189   96.2360 H   0  0  0  0  0  0
  -27.2237   21.3095   98.7504 H   0  0  0  0  0  0
  -27.7176   22.9735   98.9768 H   0  0  0  0  0  0
  -28.1671   22.1197   97.4956 H   0  0  0  0  0  0
  -26.4046   21.6531   95.8158 H   0  0  0  0  0  0
  -24.7824   22.2270   96.0582 H   0  0  0  0  0  0
  -24.8761   20.5114   98.1882 H   0  0  0  0  0  0
  -26.1561   19.8232   97.2493 H   0  0  0  0  0  0
  -24.2148   18.5834   96.6627 H   0  0  0  0  0  0
  -24.7007   19.5214   95.2670 H   0  0  0  0  0  0
  -21.2121   21.5746   96.3731 H   0  0  0  0  0  0
  -19.5659   18.5414   97.8848 H   0  0  0  0  0  0
  -17.2840   18.6412   98.7317 H   0  0  0  0  0  0
  -15.9868   20.7424   98.6133 H   0  0  0  0  0  0
  -15.7112   22.9490   97.6030 H   0  0  0  0  0  0
  -16.9538   23.6243   96.6237 H   0  0  0  0  0  0
  -19.8293   27.9158  100.6134 H   0  0  0  0  0  0
  -21.7922   29.2277  100.0275 H   0  0  0  0  0  0
  -22.5586   26.6846   96.6741 H   0  0  0  0  0  0
  -20.5884   25.3368   97.2217 H   0  0  0  0  0  0
  -18.4217   26.4990  101.2872 H   0  0  0  0  0  0
  -16.4629   25.2161  101.7081 H   0  0  0  0  0  0
  -19.3048   22.6883   96.7189 H   0  0  0  0  0  0
  1  2  1  0  0  0
  1 32  1  0  0  0
  1 33  1  0  0  0
  1 34  1  0  0  0
  2  3  1  0  0  0
  2  4  1  0  0  0
  3 35  1  0  0  0
  3 36  1  0  0  0
  3 37  1  0  0  0
  4  5  1  0  0  0
  4 38  1  0  0  0
  4 39  1  0  0  0
  5  6  1  0  0  0
  5 40  1  0  0  0
  5 41  1  0  0  0
  6  7  1  0  0  0
  6 42  1  0  0  0
  6 43  1  0  0  0
  7  8  1  0  0  0
  8  9  2  0  0  0
  8 10  1  0  0  0
 10 11  1  0  0  0
 10 44  1  0  0  0
 11 31  1  0  0  0
 11 12  2  0  0  0
 12 13  1  0  0  0
 12 45  1  0  0  0
 13 14  2  0  0  0
 13 46  1  0  0  0
 14 15  1  0  0  0
 14 47  1  0  0  0
 15 16  1  0  0  0
 15 31  2  0  0  0
 16 17  1  0  0  0
 16 48  1  0  0  0
 16 49  1  0  0  0
 17 29  1  0  0  0
 17 18  1  0  0  0
 18 19  2  0  0  0
 19 20  1  0  0  0
 19 27  1  0  0  0
 20 26  1  0  0  0
 20 21  2  0  0  0
 21 22  1  0  0  0
 21 50  1  0  0  0
 22 23  2  0  0  0
 22 51  1  0  0  0
 23 24  1  0  0  0
 23 25  1  0  0  0
 25 26  2  0  0  0
 25 52  1  0  0  0
 26 53  1  0  0  0
 27 28  2  0  0  0
 27 54  1  0  0  0
 28 29  1  0  0  0
 28 55  1  0  0  0
 29 30  2  0  0  0
 31 56  1  0  0  0
M  END
> <s_m_source_file>
/home/user-home/yujie/0_PBCNetv2/data/FEP/cmet/inp_ligprep.csv

> <i_m_source_file_index>
6

> <i_lp_mmshare_version>
51139

> <i_f3d_flags>
0

> <s_epik_input>
W0NIM11OKFtDSDNdKVtDSDJdW0NIMl1bQ0gyXU9DKD1PKVtOSF1jMVtjSF1bY0hdW2NIXWMoW2NIXTEpW0NIMl1uMm5jKFtjSF1bY0hdYzI9TyktYzNbY0hdW2NIXWMoRilbY0hdW2NIXTM=

> <s_epik_cmdline>
J2VwaWtfcHl0aG9uJywgJy1waHQnLCAnMi4wJywgJy1waCcsICc3LjQnLCAnLXRuJywgJzgnLCAnLW1hJywgJzIwMCcsICctaW1hZScsICc8aW5maWxlLm1hZT4nLCAnLW9tYWUnLCAnPG91dGZpbGUubWFlPic=

> <r_lp_tautomer_probability>
1

> <r_epik_Ionization_Penalty>
  2.3512

> <r_epik_Ionization_Penalty_Charging>
  0.0000

> <r_epik_Ionization_Penalty_Neutral>
  2.3512

> <r_epik_State_Penalty>
  2.5055

> <r_epik_Charging_Adjusted_Penalty>
2.50554

> <i_epik_Tot_Q>
0

> <i_epik_Tot_abs_Q>
0

> <s_epik_Chemistry_Notes>
This compound has an ester and may undergo hydrolysis at high or low pH.

> <s_lp_Force_Field>
OPLS3e

> <r_lp_Energy>
55.4556

> <b_lp_Chiralities_Consistent>
1

> <s_lp_Variant>
lig_cmet_CHEMBL3402764_90-2

> <s_i_glide_gridfile>
cmet-001-gridgen

> <i_i_glide_lignum>
9

> <i_i_glide_rotatable_bonds>
10

> <r_i_docking_score>
-7.76971281402265

> <r_i_glide_ligand_efficiency>
-0.250635897226537

> <r_i_glide_ligand_efficiency_sa>
-0.787342757440959

> <r_i_glide_ligand_efficiency_ln>
-1.75230835266355

> <r_i_glide_gscore>
-10.2752528140226

> <r_i_glide_lipo>
-4.36040751584138

> <r_i_glide_hbond>
-0.467813022343077

> <r_i_glide_metal>
-0

> <r_i_glide_rewards>
-1.82168405536439

> <r_i_glide_evdw>
-57.2233963012695

> <r_i_glide_ecoul>
-11.6152229309082

> <r_i_glide_erotb>
0.990477553869386

> <r_i_glide_esite>
-0.0123725196434724

> <r_i_glide_emodel>
-108.800551464689

> <r_i_glide_energy>
-68.8386192321777

> <r_i_glide_einternal>
4.67482280731201

> <i_i_glide_confnum>
11

> <i_i_glide_posenum>
290

> <r_i_glide_eff_state_penalty>
2.50554

$$$$
