lig_cmet_CHEMBL3402763_90
                    3D
 Schrodinger Suite 2020-3.
 62 64  0  0  1  0            999 V2000
  -28.5314   22.5030   98.6412 C   0  0  0  0  0  0
  -27.0948   22.2357   98.1625 C   0  0  0  0  0  0
  -26.9764   22.1316   96.6978 N   0  0  0  0  0  0
  -27.2058   23.4382   96.0608 C   0  0  0  0  0  0
  -27.3522   23.3568   94.5311 C   0  0  0  0  0  0
  -25.6649   21.5855   96.3101 C   0  0  0  0  0  0
  -25.4472   20.1245   96.7619 C   0  0  0  0  0  0
  -24.2616   19.4297   96.0755 C   0  0  0  0  0  0
  -23.0756   20.2108   96.2208 O   0  0  0  0  0  0
  -21.9257   19.6860   96.6794 C   0  0  0  0  0  0
  -21.7744   18.5097   97.0140 O   0  0  0  0  0  0
  -20.9748   20.6958   96.7122 N   0  0  0  0  0  0
  -19.6571   20.6667   97.1991 C   0  0  0  0  0  0
  -19.0583   19.5535   97.8136 C   0  0  0  0  0  0
  -17.7541   19.6342   98.2983 C   0  0  0  0  0  0
  -17.0414   20.8260   98.1927 C   0  0  0  0  0  0
  -17.6274   21.9422   97.5905 C   0  0  0  0  0  0
  -16.8635   23.2581   97.4990 C   0  0  0  0  0  0
  -17.1651   24.1582   98.6262 N   0  0  0  0  0  0
  -18.3414   24.8483   98.5348 N   0  0  0  0  0  0
  -18.7828   25.7124   99.3759 C   0  0  0  0  0  0
  -20.0855   26.3838   99.1124 C   0  0  0  0  0  0
  -21.0021   25.8188   98.2078 C   0  0  0  0  0  0
  -22.1982   26.4639   97.9068 C   0  0  0  0  0  0
  -22.4934   27.6837   98.5069 C   0  0  0  0  0  0
  -23.9738   28.4879   98.1333 Cl  0  0  0  0  0  0
  -21.6092   28.2532   99.4170 C   0  0  0  0  0  0
  -20.4195   27.6019   99.7308 C   0  0  0  0  0  0
  -17.9639   26.1729  100.6016 C   0  0  0  0  0  0
  -16.8209   24.9101  101.2884 S   0  0  0  0  0  0
  -16.3356   24.0431   99.7567 C   0  0  0  0  0  0
  -15.3371   23.3193   99.8170 O   0  0  0  0  0  0
  -18.9271   21.8525   97.0835 C   0  0  0  0  0  0
  -28.5967   22.3873   99.7225 H   0  0  0  0  0  0
  -29.2340   21.7973   98.1974 H   0  0  0  0  0  0
  -28.8695   23.5111   98.4096 H   0  0  0  0  0  0
  -26.4187   22.9984   98.5510 H   0  0  0  0  0  0
  -26.7940   21.2988   98.6254 H   0  0  0  0  0  0
  -28.1328   23.8708   96.4335 H   0  0  0  0  0  0
  -26.4132   24.1382   96.3281 H   0  0  0  0  0  0
  -27.7036   24.3078   94.1326 H   0  0  0  0  0  0
  -26.4106   23.1364   94.0312 H   0  0  0  0  0  0
  -28.0750   22.5949   94.2415 H   0  0  0  0  0  0
  -25.5185   21.6219   95.2333 H   0  0  0  0  0  0
  -24.8753   22.2159   96.7224 H   0  0  0  0  0  0
  -25.2028   20.1194   97.8199 H   0  0  0  0  0  0
  -26.3633   19.5417   96.6670 H   0  0  0  0  0  0
  -24.1529   18.4243   96.4884 H   0  0  0  0  0  0
  -24.4729   19.3065   95.0137 H   0  0  0  0  0  0
  -21.2930   21.5874   96.3660 H   0  0  0  0  0  0
  -19.5755   18.6138   97.9223 H   0  0  0  0  0  0
  -17.3003   18.7694   98.7626 H   0  0  0  0  0  0
  -16.0358   20.8822   98.5868 H   0  0  0  0  0  0
  -15.7950   23.0611   97.3857 H   0  0  0  0  0  0
  -17.1285   23.7593   96.5665 H   0  0  0  0  0  0
  -20.7927   24.8766   97.7217 H   0  0  0  0  0  0
  -22.8923   26.0196   97.2087 H   0  0  0  0  0  0
  -21.8553   29.1879   99.9004 H   0  0  0  0  0  0
  -19.7713   28.0702  100.4623 H   0  0  0  0  0  0
  -18.6330   26.4200  101.4224 H   0  0  0  0  0  0
  -17.4058   27.0832  100.3671 H   0  0  0  0  0  0
  -19.3744   22.7233   96.6268 H   0  0  0  0  0  0
  1  2  1  0  0  0
  1 34  1  0  0  0
  1 35  1  0  0  0
  1 36  1  0  0  0
  2  3  1  0  0  0
  2 37  1  0  0  0
  2 38  1  0  0  0
  3  4  1  0  0  0
  3  6  1  0  0  0
  4  5  1  0  0  0
  4 39  1  0  0  0
  4 40  1  0  0  0
  5 41  1  0  0  0
  5 42  1  0  0  0
  5 43  1  0  0  0
  6  7  1  0  0  0
  6 44  1  0  0  0
  6 45  1  0  0  0
  7  8  1  0  0  0
  7 46  1  0  0  0
  7 47  1  0  0  0
  8  9  1  0  0  0
  8 48  1  0  0  0
  8 49  1  0  0  0
  9 10  1  0  0  0
 10 11  2  0  0  0
 10 12  1  0  0  0
 12 13  1  0  0  0
 12 50  1  0  0  0
 13 33  1  0  0  0
 13 14  2  0  0  0
 14 15  1  0  0  0
 14 51  1  0  0  0
 15 16  2  0  0  0
 15 52  1  0  0  0
 16 17  1  0  0  0
 16 53  1  0  0  0
 17 18  1  0  0  0
 17 33  2  0  0  0
 18 19  1  0  0  0
 18 54  1  0  0  0
 18 55  1  0  0  0
 19 31  1  0  0  0
 19 20  1  0  0  0
 20 21  2  0  0  0
 21 22  1  0  0  0
 21 29  1  0  0  0
 22 28  1  0  0  0
 22 23  2  0  0  0
 23 24  1  0  0  0
 23 56  1  0  0  0
 24 25  2  0  0  0
 24 57  1  0  0  0
 25 26  1  0  0  0
 25 27  1  0  0  0
 27 28  2  0  0  0
 27 58  1  0  0  0
 28 59  1  0  0  0
 29 30  1  0  0  0
 29 60  1  0  0  0
 29 61  1  0  0  0
 30 31  1  0  0  0
 31 32  2  0  0  0
 33 62  1  0  0  0
M  END
> <s_m_source_file>
/home/user-home/yujie/0_PBCNetv2/data/FEP/cmet/inp_ligprep.csv

> <i_m_source_file_index>
10

> <i_lp_mmshare_version>
51139

> <i_f3d_flags>
0

> <s_epik_input>
W0NIM11bQ0gyXU4oW0NIMl1bQ0gzXSlbQ0gyXVtDSDJdW0NIMl1PQyg9TylbTkhdYzFbY0hdW2NIXVtjSF1jKFtjSF0xKVtDSDJdTjJOPUMoW0NIMl1TQzI9TyljM1tjSF1bY0hdYyhDbClbY0hdW2NIXTM=

> <s_epik_cmdline>
J2VwaWtfcHl0aG9uJywgJy1waHQnLCAnMi4wJywgJy1waCcsICc3LjQnLCAnLXRuJywgJzgnLCAnLW1hJywgJzIwMCcsICctaW1hZScsICc8aW5maWxlLm1hZT4nLCAnLW9tYWUnLCAnPG91dGZpbGUubWFlPic=

> <r_epik_Ionization_Penalty>
  2.3512

> <r_epik_Ionization_Penalty_Charging>
  0.0000

> <r_epik_Ionization_Penalty_Neutral>
  2.3512

> <r_epik_State_Penalty>
  2.5055

> <r_epik_Charging_Adjusted_Penalty>
2.50554

> <i_epik_Tot_Q>
0

> <i_epik_Tot_abs_Q>
0

> <s_epik_Chemistry_Notes>
This compound has an ester and may undergo hydrolysis at high or low pH. This compound has an imine and may undergo hydrolysis.

> <s_lp_Force_Field>
OPLS3e

> <r_lp_Energy>
50.6083

> <b_lp_Chiralities_Consistent>
1

> <s_lp_Variant>
lig_cmet_CHEMBL3402763_90-2

> <s_i_glide_gridfile>
cmet-001-gridgen

> <i_i_glide_lignum>
15

> <i_i_glide_rotatable_bonds>
12

> <r_i_docking_score>
-7.70132830505733

> <r_i_glide_ligand_efficiency>
-0.233373585001737

> <r_i_glide_ligand_efficiency_sa>
-0.74855378473483

> <r_i_glide_ligand_efficiency_ln>
-1.71273553970087

> <r_i_glide_gscore>
-10.2068683050573

> <r_i_glide_lipo>
-3.80353998656685

> <r_i_glide_hbond>
-0.405876615860088

> <r_i_glide_metal>
-0

> <r_i_glide_rewards>
-2.20004866243008

> <r_i_glide_evdw>
-61.8210220336914

> <r_i_glide_ecoul>
-10.3792428970337

> <r_i_glide_erotb>
0.850534496039314

> <r_i_glide_esite>
0

> <r_i_glide_emodel>
-110.875630591802

> <r_i_glide_energy>
-72.2002649307251

> <r_i_glide_einternal>
6.1739616394043

> <i_i_glide_confnum>
538

> <i_i_glide_posenum>
242

> <r_i_glide_eff_state_penalty>
2.50554

$$$$
