lig_cmet_CHEMBL3402750_400
                    3D
 Schrodinger Suite 2020-3.
 43 46  0  0  1  0            999 V2000
  -24.8701   21.0450   96.2273 C   0  0  0  0  0  0
  -23.4660   20.5461   96.4616 C   0  0  0  0  0  0
  -22.9773   19.2494   96.6155 C   0  0  0  0  0  0
  -21.6938   19.1071   96.8729 N   0  0  0  0  0  0
  -21.0722   20.2573   96.9342 C   0  0  0  0  0  0
  -19.6314   20.4194   97.3348 C   0  0  0  0  0  0
  -18.9225   19.3123   97.8173 C   0  0  0  0  0  0
  -17.6078   19.4415   98.2599 C   0  0  0  0  0  0
  -16.9745   20.6817   98.2139 C   0  0  0  0  0  0
  -17.6487   21.7926   97.7011 C   0  0  0  0  0  0
  -16.9315   23.1343   97.5777 C   0  0  0  0  0  0
  -17.2530   24.0719   98.6650 N   0  0  0  0  0  0
  -18.3978   24.8512   98.4790 N   0  0  0  0  0  0
  -18.8054   25.7073   99.3603 C   0  0  0  0  0  0
  -19.9852   26.5735   99.1363 C   0  0  0  0  0  0
  -20.1490   27.7907   99.8149 C   0  0  0  0  0  0
  -21.2427   28.6127   99.5524 C   0  0  0  0  0  0
  -21.3651   29.7969  100.1953 F   0  0  0  0  0  0
  -22.2022   28.2223   98.6211 C   0  0  0  0  0  0
  -22.0664   27.0093   97.9531 C   0  0  0  0  0  0
  -22.9940   26.6286   97.0444 F   0  0  0  0  0  0
  -20.9678   26.1912   98.2076 C   0  0  0  0  0  0
  -18.0188   25.7980  100.5806 C   0  0  0  0  0  0
  -16.9120   25.0378  100.7693 C   0  0  0  0  0  0
  -16.4268   24.1017   99.7696 C   0  0  0  0  0  0
  -15.3909   23.4468   99.9159 O   0  0  0  0  0  0
  -18.9718   21.6551   97.2658 C   0  0  0  0  0  0
  -22.1011   21.6208   96.6150 S   0  0  0  0  0  0
  -25.5567   20.2358   95.9786 H   0  0  0  0  0  0
  -24.9085   21.7662   95.4148 H   0  0  0  0  0  0
  -25.2624   21.5391   97.1149 H   0  0  0  0  0  0
  -23.5947   18.3639   96.5592 H   0  0  0  0  0  0
  -19.3875   18.3388   97.8605 H   0  0  0  0  0  0
  -17.0813   18.5775   98.6397 H   0  0  0  0  0  0
  -15.9541   20.7754   98.5567 H   0  0  0  0  0  0
  -15.8551   22.9689   97.4818 H   0  0  0  0  0  0
  -17.2045   23.5870   96.6213 H   0  0  0  0  0  0
  -19.4177   28.1424  100.5258 H   0  0  0  0  0  0
  -23.0501   28.8591   98.4221 H   0  0  0  0  0  0
  -20.8875   25.2569   97.6686 H   0  0  0  0  0  0
  -18.2995   26.4763  101.3756 H   0  0  0  0  0  0
  -16.3538   25.1262  101.6906 H   0  0  0  0  0  0
  -19.4861   22.5248   96.8822 H   0  0  0  0  0  0
  1  2  1  0  0  0
  1 29  1  0  0  0
  1 30  1  0  0  0
  1 31  1  0  0  0
  2 28  1  0  0  0
  2  3  2  0  0  0
  3  4  1  0  0  0
  3 32  1  0  0  0
  4  5  2  0  0  0
  5  6  1  0  0  0
  5 28  1  0  0  0
  6 27  1  0  0  0
  6  7  2  0  0  0
  7  8  1  0  0  0
  7 33  1  0  0  0
  8  9  2  0  0  0
  8 34  1  0  0  0
  9 10  1  0  0  0
  9 35  1  0  0  0
 10 11  1  0  0  0
 10 27  2  0  0  0
 11 12  1  0  0  0
 11 36  1  0  0  0
 11 37  1  0  0  0
 12 25  1  0  0  0
 12 13  1  0  0  0
 13 14  2  0  0  0
 14 15  1  0  0  0
 14 23  1  0  0  0
 15 22  1  0  0  0
 15 16  2  0  0  0
 16 17  1  0  0  0
 16 38  1  0  0  0
 17 18  1  0  0  0
 17 19  2  0  0  0
 19 20  1  0  0  0
 19 39  1  0  0  0
 20 21  1  0  0  0
 20 22  2  0  0  0
 22 40  1  0  0  0
 23 24  2  0  0  0
 23 41  1  0  0  0
 24 25  1  0  0  0
 24 42  1  0  0  0
 25 26  2  0  0  0
 27 43  1  0  0  0
M  END
> <s_m_source_file>
/home/user-home/yujie/0_PBCNetv2/data/FEP/cmet/inp_ligprep.csv

> <i_m_source_file_index>
19

> <i_lp_mmshare_version>
51139

> <i_f3d_flags>
0

> <s_epik_input>
W0NIM11jMVtjSF1uYyhzMSktYzJbY0hdW2NIXVtjSF1jKFtjSF0yKVtDSDJdbjNuYyhbY0hdW2NIXWMzPU8pLWM0W2NIXWMoRilbY0hdYyhGKVtjSF00

> <s_epik_cmdline>
J2VwaWtfcHl0aG9uJywgJy1waHQnLCAnMi4wJywgJy1waCcsICc3LjQnLCAnLXRuJywgJzgnLCAnLW1hJywgJzIwMCcsICctaW1hZScsICc8aW5maWxlLm1hZT4nLCAnLW9tYWUnLCAnPG91dGZpbGUubWFlPic=

> <r_lp_tautomer_probability>
1

> <r_epik_Ionization_Penalty>
  0.0000

> <r_epik_Ionization_Penalty_Charging>
  0.0000

> <r_epik_Ionization_Penalty_Neutral>
  0.0000

> <r_epik_State_Penalty>
 -0.0000

> <r_epik_Charging_Adjusted_Penalty>
1.65007e-08

> <i_epik_Tot_Q>
0

> <i_epik_Tot_abs_Q>
0

> <s_lp_Force_Field>
OPLS3e

> <r_lp_Energy>
50.4709

> <b_lp_Chiralities_Consistent>
1

> <s_lp_Variant>
lig_cmet_CHEMBL3402750_400-1

> <s_i_glide_gridfile>
cmet-001-gridgen

> <i_i_glide_lignum>
29

> <i_i_glide_rotatable_bonds>
4

> <r_i_docking_score>
-10.4443709231361

> <r_i_glide_ligand_efficiency>
-0.373013247254861

> <r_i_glide_ligand_efficiency_sa>
-1.13268791171953

> <r_i_glide_ligand_efficiency_ln>
-2.41086746911533

> <r_i_glide_gscore>
-10.4443709231361

> <r_i_glide_lipo>
-4.82405151981326

> <r_i_glide_hbond>
-0.292217312699371

> <r_i_glide_metal>
-0

> <r_i_glide_rewards>
-2.1898073495341

> <r_i_glide_evdw>
-56.9170761108398

> <r_i_glide_ecoul>
-5.25763559341431

> <r_i_glide_erotb>
0.500243955944623

> <r_i_glide_esite>
-0.00403955247987193

> <r_i_glide_emodel>
-100.05682311374

> <r_i_glide_energy>
-62.1747117042542

> <r_i_glide_einternal>
1.13248360157013

> <i_i_glide_confnum>
13

> <i_i_glide_posenum>
160

> <r_i_glide_eff_state_penalty>
-0

$$$$
