lig_cmet_CHEMBL3402757_6
                    3D
 Schrodinger Suite 2023-4.
 61 64  0  0  1  0            999 V2000
  -25.6739   25.5029   95.9728 C   0  0  0  0  0  0
  -25.2183   24.2490   96.6150 N   0  3  0  0  0  0
  -24.2094   24.5221   97.6683 C   0  0  0  0  0  0
  -26.3552   23.4086   97.0823 C   0  0  0  0  0  0
  -25.9851   21.9197   97.2271 C   0  0  0  0  0  0
  -25.7845   21.2015   95.8747 C   0  0  0  0  0  0
  -25.0210   20.0082   96.0299 O   0  0  0  0  0  0
  -23.6674   20.1317   96.2690 C   0  0  0  0  0  0
  -22.9354   21.3356   96.2153 C   0  0  0  0  0  0
  -21.6299   21.4070   96.5150 N   0  0  0  0  0  0
  -21.0133   20.2813   96.8727 C   0  0  0  0  0  0
  -19.5951   20.4043   97.2817 C   0  0  0  0  0  0
  -18.9092   19.2940   97.8149 C   0  0  0  0  0  0
  -17.5904   19.4079   98.2893 C   0  0  0  0  0  0
  -16.9233   20.6416   98.2146 C   0  0  0  0  0  0
  -17.5651   21.7504   97.6309 C   0  0  0  0  0  0
  -16.8342   23.0766   97.5147 C   0  0  0  0  0  0
  -17.1660   23.9825   98.6147 N   0  0  0  0  0  0
  -18.2633   24.7798   98.3654 N   0  0  0  0  0  0
  -18.6901   25.6368   99.2354 C   0  0  0  0  0  0
  -19.8502   26.4828   98.8427 C   0  0  0  0  0  0
  -20.4801   27.3113   99.7966 C   0  0  0  0  0  0
  -21.5493   28.1414   99.4064 C   0  0  0  0  0  0
  -21.9936   28.1426   98.0697 C   0  0  0  0  0  0
  -21.3712   27.3132   97.1170 C   0  0  0  0  0  0
  -21.8014   27.3091   95.8321 F   0  0  0  0  0  0
  -20.3027   26.4813   97.4986 C   0  0  0  0  0  0
  -18.0135   25.7217  100.5257 C   0  0  0  0  0  0
  -16.9242   24.9529  100.7551 C   0  0  0  0  0  0
  -16.4095   24.0279   99.7473 C   0  0  0  0  0  0
  -15.3865   23.3570   99.8902 O   0  0  0  0  0  0
  -18.8976   21.6337   97.1797 C   0  0  0  0  0  0
  -21.6027   19.0773   96.9331 N   0  0  0  0  0  0
  -22.9124   18.9982   96.6155 C   0  0  0  0  0  0
  -26.2025   26.1402   96.6851 H   0  0  0  0  0  0
  -26.3423   25.2906   95.1363 H   0  0  0  0  0  0
  -24.8252   26.0624   95.5766 H   0  0  0  0  0  0
  -24.6384   25.0975   98.4904 H   0  0  0  0  0  0
  -23.7917   23.6052   98.0829 H   0  0  0  0  0  0
  -23.3762   25.0929   97.2583 H   0  0  0  0  0  0
  -26.7226   23.7987   98.0328 H   0  0  0  0  0  0
  -27.1887   23.4862   96.3823 H   0  0  0  0  0  0
  -25.1090   21.8124   97.8627 H   0  0  0  0  0  0
  -26.7799   21.4018   97.7667 H   0  0  0  0  0  0
  -26.7585   20.9251   95.4694 H   0  0  0  0  0  0
  -25.3416   21.8518   95.1206 H   0  0  0  0  0  0
  -23.3852   22.2773   95.9587 H   0  0  0  0  0  0
  -19.3987   18.3347   97.8868 H   0  0  0  0  0  0
  -17.0958   18.5474   98.7151 H   0  0  0  0  0  0
  -15.9129   20.7304   98.5857 H   0  0  0  0  0  0
  -15.7587   22.9000   97.4509 H   0  0  0  0  0  0
  -17.0933   23.5444   96.5632 H   0  0  0  0  0  0
  -20.1816   27.3133  100.8316 H   0  0  0  0  0  0
  -22.0346   28.7697  100.1401 H   0  0  0  0  0  0
  -22.8152   28.7801   97.7780 H   0  0  0  0  0  0
  -19.8384   25.8665   96.7413 H   0  0  0  0  0  0
  -18.3531   26.3965  101.2955 H   0  0  0  0  0  0
  -16.4173   25.0251  101.7063 H   0  0  0  0  0  0
  -19.3813   22.5059   96.7648 H   0  0  0  0  0  0
  -23.3738   18.0236   96.6852 H   0  0  0  0  0  0
  -24.7474   23.7350   95.8782 H   0  0  0  0  0  0
  1  2  1  0  0  0
  1 35  1  0  0  0
  1 36  1  0  0  0
  1 37  1  0  0  0
  2  3  1  0  0  0
  2  4  1  0  0  0
  2 61  1  0  0  0
  3 38  1  0  0  0
  3 39  1  0  0  0
  3 40  1  0  0  0
  4  5  1  0  0  0
  4 41  1  0  0  0
  4 42  1  0  0  0
  5  6  1  0  0  0
  5 43  1  0  0  0
  5 44  1  0  0  0
  6  7  1  0  0  0
  6 45  1  0  0  0
  6 46  1  0  0  0
  7  8  1  0  0  0
  8 34  1  0  0  0
  8  9  2  0  0  0
  9 10  1  0  0  0
  9 47  1  0  0  0
 10 11  2  0  0  0
 11 12  1  0  0  0
 11 33  1  0  0  0
 12 32  1  0  0  0
 12 13  2  0  0  0
 13 14  1  0  0  0
 13 48  1  0  0  0
 14 15  2  0  0  0
 14 49  1  0  0  0
 15 16  1  0  0  0
 15 50  1  0  0  0
 16 17  1  0  0  0
 16 32  2  0  0  0
 17 18  1  0  0  0
 17 51  1  0  0  0
 17 52  1  0  0  0
 18 30  1  0  0  0
 18 19  1  0  0  0
 19 20  2  0  0  0
 20 21  1  0  0  0
 20 28  1  0  0  0
 21 27  1  0  0  0
 21 22  2  0  0  0
 22 23  1  0  0  0
 22 53  1  0  0  0
 23 24  2  0  0  0
 23 54  1  0  0  0
 24 25  1  0  0  0
 24 55  1  0  0  0
 25 26  1  0  0  0
 25 27  2  0  0  0
 27 56  1  0  0  0
 28 29  2  0  0  0
 28 57  1  0  0  0
 29 30  1  0  0  0
 29 58  1  0  0  0
 30 31  2  0  0  0
 32 59  1  0  0  0
 33 34  2  0  0  0
 34 60  1  0  0  0
M  CHG  1   2   1
M  END
> <i_epik_Tot_Q>
1

> <i_epik_Tot_abs_Q>
1

> <i_f3d_flags>
0

> <i_i_glide_confnum>
97

> <i_i_glide_lignum>
1

> <i_i_glide_posenum>
343

> <i_i_glide_rotatable_bonds>
9

> <i_lp_mmshare_version>
65135

> <i_m_Source_File_Index>
1

> <i_m_source_file_index>
1

> <b_lp_Chiralities_Consistent>
1

> <r_canvas_pIC50s>
8.19

> <r_epik_Charging_Adjusted_Penalty>
0.00923182

> <r_epik_Ionization_Penalty>
0.0046

> <r_epik_Ionization_Penalty_Charging>
0.0046

> <r_epik_Ionization_Penalty_Neutral>
0

> <r_epik_State_Penalty>
0.0046

> <r_i_docking_score>
-10.857

> <r_i_glide_ecoul>
-10.454

> <r_i_glide_eff_state_penalty>
0.0046

> <r_i_glide_einternal>
4.40139

> <r_i_glide_emodel>
-117.536

> <r_i_glide_energy>
-71.4052

> <r_i_glide_erotb>
0.759295

> <r_i_glide_esite>
-0.0464066

> <r_i_glide_evdw>
-60.9511

> <r_i_glide_gscore>
-10.8616

> <r_i_glide_hbond>
-0.328561

> <r_i_glide_ligand_efficiency>
-0.319325

> <r_i_glide_ligand_efficiency_ln>
-2.39863

> <r_i_glide_ligand_efficiency_sa>
-1.03449

> <r_i_glide_lipo>
-4.80645

> <r_i_glide_metal>
-0

> <r_i_glide_rewards>
-1.82387

> <r_lp_Energy>
82.718

> <r_lp_tautomer_probability>
1

> <s_canvas_SMILES>
C[NH+](C)CCCOc1cnc(-c2cccc(Cn3nc(-c4cccc(F)c4)ccc3=O)c2)nc1

> <s_canvas_chembl\_ids>
CHEMBL3717

> <s_canvas_dirnames>
test_set_fep+

> <s_canvas_pdb\_ids>
4R1Y

> <s_canvas_protein\_names>
cmet

> <s_canvas_uniprot\_ids>
P08581

> <s_epik_cmdline>
J2VwaWtfcHl0aG9uJywgJy1waCcsICc3LjAnLCAnLXRuJywgJzgnLCAnLW1hJywgJzUwMCcsICctaW1hZScsICc8aW5maWxlLm1hZT4nLCAnLW9tYWUnLCAnPG91dGZpbGUubWFlPic=

> <s_epik_input>
W0NIM11OKFtDSDNdKVtDSDJdW0NIMl1bQ0gyXU9jMVtjSF1uYyhuW2NIXTEpLWMyW2NIXVtjSF1bY0hdYyhbY0hdMilbQ0gyXW4zbmMoW2NIXVtjSF1jMz1PKS1jNFtjSF1bY0hdW2NIXWMoRilbY0hdNA==

> <s_i_glide_gridfile>
cmet-001-gridgen

> <s_lp_Force_Field>
S-OPLS

> <s_lp_Variant>
lig_cmet_CHEMBL3402757_6-1

> <s_m_Source_File>
ligprep_cmet-out.maegz

> <s_m_Source_Path>
C:\Users\yujie\Desktop\FEP\ligprep_cmet

> <s_m_entry_id>
14217

> <s_m_entry_name>
label.1

> <s_m_job_name>
ligprep_cmet

> <s_m_source_file>
ligprep_cmet.maegz

$$$$
