lig_cmet_CHEMBL3402755_4200
                    3D
 Schrodinger Suite 2024-1.
 45 48  0  0  1  0            999 V2000
  -25.1555   19.6460   96.0215 C   0  0  0  0  0  0
  -23.7091   19.9680   96.3328 C   0  0  0  0  0  0
  -23.2305   21.2772   96.3180 C   0  0  0  0  0  0
  -21.8855   21.4835   96.6159 C   0  0  0  0  0  0
  -21.0793   20.3731   96.9183 C   0  0  0  0  0  0
  -19.6342   20.4889   97.3208 C   0  0  0  0  0  0
  -18.9275   19.3811   97.8151 C   0  0  0  0  0  0
  -17.6123   19.4928   98.2661 C   0  0  0  0  0  0
  -16.9629   20.7220   98.2141 C   0  0  0  0  0  0
  -17.6189   21.8329   97.6860 C   0  0  0  0  0  0
  -16.8921   23.1675   97.5701 C   0  0  0  0  0  0
  -17.2234   24.0982   98.6616 N   0  0  0  0  0  0
  -18.3699   24.8740   98.4733 N   0  0  0  0  0  0
  -18.7918   25.7094   99.3647 C   0  0  0  0  0  0
  -19.9758   26.5655   99.1428 C   0  0  0  0  0  0
  -20.1387   27.7864   99.8150 C   0  0  0  0  0  0
  -21.2396   28.6025   99.5604 C   0  0  0  0  0  0
  -21.3613   29.7894  100.1994 F   0  0  0  0  0  0
  -22.2044   28.2042   98.6375 C   0  0  0  0  0  0
  -22.0707   26.9876   97.9756 C   0  0  0  0  0  0
  -23.0073   26.5957   97.0820 F   0  0  0  0  0  0
  -20.9658   26.1750   98.2264 C   0  0  0  0  0  0
  -18.0196   25.7894  100.5955 C   0  0  0  0  0  0
  -16.9142   25.0303  100.7883 C   0  0  0  0  0  0
  -16.4169   24.1091   99.7822 C   0  0  0  0  0  0
  -15.3868   23.4450   99.9382 O   0  0  0  0  0  0
  -18.9392   21.7083   97.2407 C   0  0  0  0  0  0
  -21.6159   19.1153   96.9070 N   0  0  0  0  0  0
  -22.9091   18.9089   96.6150 N   0  0  0  0  0  0
  -25.7524   20.5516   95.8923 H   0  0  0  0  0  0
  -25.6026   19.0614   96.8302 H   0  0  0  0  0  0
  -25.2187   19.0632   95.0995 H   0  0  0  0  0  0
  -23.8776   22.1095   96.0838 H   0  0  0  0  0  0
  -21.5079   22.4935   96.6243 H   0  0  0  0  0  0
  -19.3947   18.4098   97.8765 H   0  0  0  0  0  0
  -17.1029   18.6234   98.6586 H   0  0  0  0  0  0
  -15.9451   20.8048   98.5703 H   0  0  0  0  0  0
  -15.8163   23.0005   97.4828 H   0  0  0  0  0  0
  -17.1538   23.6302   96.6161 H   0  0  0  0  0  0
  -19.4040   28.1425  100.5195 H   0  0  0  0  0  0
  -23.0578   28.8361   98.4450 H   0  0  0  0  0  0
  -20.8866   25.2396   97.6928 H   0  0  0  0  0  0
  -18.3145   26.4539  101.3972 H   0  0  0  0  0  0
  -16.3661   25.1057  101.7168 H   0  0  0  0  0  0
  -19.4193   22.5915   96.8504 H   0  0  0  0  0  0
  1  2  1  0  0  0
  1 30  1  0  0  0
  1 31  1  0  0  0
  1 32  1  0  0  0
  2 29  1  0  0  0
  2  3  2  0  0  0
  3  4  1  0  0  0
  3 33  1  0  0  0
  4  5  2  0  0  0
  4 34  1  0  0  0
  5  6  1  0  0  0
  5 28  1  0  0  0
  6 27  1  0  0  0
  6  7  2  0  0  0
  7  8  1  0  0  0
  7 35  1  0  0  0
  8  9  2  0  0  0
  8 36  1  0  0  0
  9 10  1  0  0  0
  9 37  1  0  0  0
 10 11  1  0  0  0
 10 27  2  0  0  0
 11 12  1  0  0  0
 11 38  1  0  0  0
 11 39  1  0  0  0
 12 25  1  0  0  0
 12 13  1  0  0  0
 13 14  2  0  0  0
 14 15  1  0  0  0
 14 23  1  0  0  0
 15 22  1  0  0  0
 15 16  2  0  0  0
 16 17  1  0  0  0
 16 40  1  0  0  0
 17 18  1  0  0  0
 17 19  2  0  0  0
 19 20  1  0  0  0
 19 41  1  0  0  0
 20 21  1  0  0  0
 20 22  2  0  0  0
 22 42  1  0  0  0
 23 24  2  0  0  0
 23 43  1  0  0  0
 24 25  1  0  0  0
 24 44  1  0  0  0
 25 26  2  0  0  0
 27 45  1  0  0  0
 28 29  2  0  0  0
M  END
> <Tot Q>
0

> <Source File Index>
66

> <i_f3d_flags>
0

> <subgroup collapsed>
0

> <Ionization Penalty>
0.0001

> <State Penalty>
0

> <docking score>
-10.3965

> <glide emodel>
-103.807

> <glide gscore>
-10.3965

> <tautomer probability>
1

> <Source File>
cmetcmet_dock_SP_confgen_100_lib.maegz

> <Source Path>
C:\Users\yujie\Desktop\FEPs\cmet

> <entry id>
67

> <subgroup title>
cmetcmet_dock_SP_confgen_100_lib

> <subgroupid>
cmetcmet_dock_SP_confgen_100_lib

$$$$
