lig_cmet_CHEMBL3402761_1
                    3D
 Schrodinger Suite 2024-1.
 63 67  0  0  1  0            999 V2000
  -21.7803   30.7951  100.6145 N   0  0  0  0  0  0
  -21.6193   29.7666  100.1128 C   0  0  0  0  0  0
  -21.4219   28.4717   99.4746 C   0  0  0  0  0  0
  -22.3976   27.9607   98.6168 C   0  0  0  0  0  0
  -22.2136   26.7212   98.0096 C   0  0  0  0  0  0
  -21.0502   25.9926   98.2499 C   0  0  0  0  0  0
  -20.0522   26.4912   99.1073 C   0  0  0  0  0  0
  -18.8252   25.6990   99.3387 C   0  0  0  0  0  0
  -18.0598   25.8373  100.5659 C   0  0  0  0  0  0
  -16.9433   25.1053  100.7889 C   0  0  0  0  0  0
  -16.4195   24.1590   99.8154 C   0  0  0  0  0  0
  -15.3823   23.5171  100.0021 O   0  0  0  0  0  0
  -17.2111   24.1106   98.6847 N   0  0  0  0  0  0
  -16.8371   23.1796   97.6122 C   0  0  0  0  0  0
  -17.5273   21.8271   97.7297 C   0  0  0  0  0  0
  -16.8279   20.7213   98.2128 C   0  0  0  0  0  0
  -17.4476   19.4758   98.2586 C   0  0  0  0  0  0
  -18.7695   19.3396   97.8413 C   0  0  0  0  0  0
  -19.5172   20.4384   97.3877 C   0  0  0  0  0  0
  -20.9578   20.2876   96.9839 C   0  0  0  0  0  0
  -21.6427   21.4088   96.6207 N   0  0  0  0  0  0
  -22.9408   21.2485   96.2563 C   0  0  0  0  0  0
  -23.5700   19.9944   96.2242 C   0  0  0  0  0  0
  -24.8632   19.7459   95.8155 O   0  0  0  0  0  0
  -25.8061   20.8154   95.7735 C   0  0  0  0  0  0
  -26.3313   21.0870   97.1985 C   0  0  0  0  0  0
  -26.9898   22.3904   97.3466 N   0  0  0  0  0  0
  -27.8167   22.3896   98.5642 C   0  0  0  0  0  0
  -28.4124   23.7790   98.8761 C   0  0  0  0  0  0
  -27.3832   24.7610   98.9182 O   0  0  0  0  0  0
  -26.6899   24.8576   97.6789 C   0  0  0  0  0  0
  -26.0285   23.5074   97.3243 C   0  0  0  0  0  0
  -22.7875   18.9097   96.6152 C   0  0  0  0  0  0
  -21.4940   19.0350   97.0060 N   0  0  0  0  0  0
  -18.8591   21.6814   97.3273 C   0  0  0  0  0  0
  -18.3741   24.8541   98.4703 N   0  0  0  0  0  0
  -20.2611   27.7321   99.7277 C   0  0  0  0  0  0
  -23.3104   28.5100   98.4314 H   0  0  0  0  0  0
  -22.9745   26.3255   97.3549 H   0  0  0  0  0  0
  -20.9342   25.0310   97.7680 H   0  0  0  0  0  0
  -18.3781   26.5127  101.3470 H   0  0  0  0  0  0
  -16.4095   25.2245  101.7194 H   0  0  0  0  0  0
  -17.1020   23.6204   96.6484 H   0  0  0  0  0  0
  -15.7548   23.0440   97.5454 H   0  0  0  0  0  0
  -15.8031   20.8232   98.5402 H   0  0  0  0  0  0
  -16.9042   18.6135   98.6168 H   0  0  0  0  0  0
  -19.2146   18.3577   97.8852 H   0  0  0  0  0  0
  -23.4469   22.1502   95.9582 H   0  0  0  0  0  0
  -25.4091   21.6975   95.2757 H   0  0  0  0  0  0
  -26.6371   20.4870   95.1470 H   0  0  0  0  0  0
  -27.0471   20.2935   97.4171 H   0  0  0  0  0  0
  -25.5318   20.9813   97.9346 H   0  0  0  0  0  0
  -28.6101   21.6475   98.4655 H   0  0  0  0  0  0
  -27.2187   22.0683   99.4150 H   0  0  0  0  0  0
  -28.9143   23.7576   99.8442 H   0  0  0  0  0  0
  -29.1705   24.0482   98.1375 H   0  0  0  0  0  0
  -25.9288   25.6338   97.7644 H   0  0  0  0  0  0
  -27.3685   25.1754   96.8853 H   0  0  0  0  0  0
  -25.2283   23.3126   98.0404 H   0  0  0  0  0  0
  -25.5459   23.5747   96.3501 H   0  0  0  0  0  0
  -23.2074   17.9143   96.6147 H   0  0  0  0  0  0
  -19.3828   22.5542   96.9667 H   0  0  0  0  0  0
  -19.5055   28.1483  100.3812 H   0  0  0  0  0  0
  1  2  3  0  0  0
  2  3  1  0  0  0
  3 37  1  0  0  0
  3  4  2  0  0  0
  4  5  1  0  0  0
  4 38  1  0  0  0
  5  6  2  0  0  0
  5 39  1  0  0  0
  6  7  1  0  0  0
  6 40  1  0  0  0
  7  8  1  0  0  0
  7 37  2  0  0  0
  8 36  2  0  0  0
  8  9  1  0  0  0
  9 10  2  0  0  0
  9 41  1  0  0  0
 10 11  1  0  0  0
 10 42  1  0  0  0
 11 12  2  0  0  0
 11 13  1  0  0  0
 13 14  1  0  0  0
 13 36  1  0  0  0
 14 15  1  0  0  0
 14 43  1  0  0  0
 14 44  1  0  0  0
 15 35  1  0  0  0
 15 16  2  0  0  0
 16 17  1  0  0  0
 16 45  1  0  0  0
 17 18  2  0  0  0
 17 46  1  0  0  0
 18 19  1  0  0  0
 18 47  1  0  0  0
 19 20  1  0  0  0
 19 35  2  0  0  0
 20 34  1  0  0  0
 20 21  2  0  0  0
 21 22  1  0  0  0
 22 23  2  0  0  0
 22 48  1  0  0  0
 23 24  1  0  0  0
 23 33  1  0  0  0
 24 25  1  0  0  0
 25 26  1  0  0  0
 25 49  1  0  0  0
 25 50  1  0  0  0
 26 27  1  0  0  0
 26 51  1  0  0  0
 26 52  1  0  0  0
 27 32  1  0  0  0
 27 28  1  0  0  0
 28 29  1  0  0  0
 28 53  1  0  0  0
 28 54  1  0  0  0
 29 30  1  0  0  0
 29 55  1  0  0  0
 29 56  1  0  0  0
 30 31  1  0  0  0
 31 32  1  0  0  0
 31 57  1  0  0  0
 31 58  1  0  0  0
 32 59  1  0  0  0
 32 60  1  0  0  0
 33 34  2  0  0  0
 33 61  1  0  0  0
 35 62  1  0  0  0
 37 63  1  0  0  0
M  END
> <Tot Q>
0

> <Source File Index>
22

> <i_f3d_flags>
0

> <subgroup collapsed>
0

> <Ionization Penalty>
0.0176

> <State Penalty>
0.014

> <docking score>
-10.7981

> <glide emodel>
-120.03

> <glide gscore>
-10.8121

> <tautomer probability>
1

> <Source File>
cmetcmet_dock_SP_confgen_100_lib.maegz

> <Source Path>
C:\Users\yujie\Desktop\FEPs\cmet

> <entry id>
14901

> <subgroup title>
cmetcmet_dock_SP_confgen_100_lib

> <subgroupid>
cmetcmet_dock_SP_confgen_100_lib

$$$$
