lig_cmet_CHEMBL3402762_1
                    3D
 Schrodinger Suite 2020-3.
 66 70  0  0  1  0            999 V2000
  -30.6675   22.1895   93.9225 C   0  0  0  0  0  0
  -29.2736   21.8305   94.4808 N   0  3  2  0  0  0
  -28.5381   20.8772   93.5069 C   0  0  0  0  0  0
  -27.1466   20.5735   94.0890 C   0  0  0  0  0  0
  -27.2465   19.9476   95.4955 C   0  0  1  0  0  0
  -25.8557   19.5592   96.0417 C   0  0  0  0  0  0
  -25.0847   20.7352   96.2324 O   0  0  0  0  0  0
  -23.7369   20.6194   96.4844 C   0  0  0  0  0  0
  -23.0106   19.4234   96.6182 C   0  0  0  0  0  0
  -21.6762   19.4025   96.8810 N   0  0  0  0  0  0
  -21.0557   20.6119   96.9921 C   0  0  0  0  0  0
  -19.6024   20.6470   97.3621 C   0  0  0  0  0  0
  -18.9219   19.5061   97.8153 C   0  0  0  0  0  0
  -17.5949   19.5781   98.2391 C   0  0  0  0  0  0
  -16.9155   20.7957   98.2144 C   0  0  0  0  0  0
  -17.5582   21.9392   97.7386 C   0  0  0  0  0  0
  -16.8413   23.2809   97.6695 C   0  0  0  0  0  0
  -17.3045   24.2359   98.6925 N   0  0  0  0  0  0
  -18.4285   25.0183   98.3660 N   0  0  0  0  0  0
  -18.8642   25.9568   99.1487 C   0  0  0  0  0  0
  -20.0042   26.8580   98.8168 C   0  0  0  0  0  0
  -20.6488   27.6041   99.8133 C   0  0  0  0  0  0
  -21.6266   28.5431   99.5095 C   0  0  0  0  0  0
  -22.0034   28.7491   98.1913 C   0  0  0  0  0  0
  -21.4007   28.0074   97.1762 C   0  0  0  0  0  0
  -21.7886   28.2817   95.8057 C   0  0  0  0  0  0
  -22.1031   28.5093   94.7158 N   0  0  0  0  0  0
  -20.4184   27.0534   97.4855 C   0  0  0  0  0  0
  -18.1642   26.1044  100.4177 C   0  0  0  0  0  0
  -17.1266   25.3096  100.7625 C   0  0  0  0  0  0
  -16.5923   24.2992   99.8733 C   0  0  0  0  0  0
  -15.5846   23.6484  100.1599 O   0  0  0  0  0  0
  -18.8817   21.8519   97.3109 C   0  0  0  0  0  0
  -21.6785   21.8152   96.8508 N   0  0  0  0  0  0
  -23.0094   21.7974   96.6161 C   0  0  0  0  0  0
  -27.9894   20.9282   96.4280 C   0  0  0  0  0  0
  -29.4030   21.2382   95.9057 C   0  0  0  0  0  0
  -31.2514   21.2708   93.8400 H   0  0  0  0  0  0
  -31.1309   22.8954   94.6142 H   0  0  0  0  0  0
  -30.5190   22.6557   92.9463 H   0  0  0  0  0  0
  -29.1471   19.9775   93.3944 H   0  0  0  0  0  0
  -28.4685   21.3871   92.5442 H   0  0  0  0  0  0
  -26.5261   21.4719   94.1101 H   0  0  0  0  0  0
  -26.6179   19.8875   93.4271 H   0  0  0  0  0  0
  -27.8469   19.0398   95.4151 H   0  0  0  0  0  0
  -25.3570   18.9094   95.3237 H   0  0  0  0  0  0
  -25.9466   19.0144   96.9839 H   0  0  0  0  0  0
  -23.4840   18.4568   96.5416 H   0  0  0  0  0  0
  -19.4198   18.5479   97.8606 H   0  0  0  0  0  0
  -17.0971   18.6875   98.5962 H   0  0  0  0  0  0
  -15.8922   20.8470   98.5582 H   0  0  0  0  0  0
  -17.0109   23.7088   96.6795 H   0  0  0  0  0  0
  -15.7592   23.1294   97.7010 H   0  0  0  0  0  0
  -20.4186   27.4743  100.8582 H   0  0  0  0  0  0
  -22.1005   29.1021  100.3040 H   0  0  0  0  0  0
  -22.7601   29.4911   97.9738 H   0  0  0  0  0  0
  -19.9368   26.5015   96.6895 H   0  0  0  0  0  0
  -18.4393   26.8622  101.1330 H   0  0  0  0  0  0
  -16.6333   25.4501  101.7140 H   0  0  0  0  0  0
  -19.3578   22.7557   96.9594 H   0  0  0  0  0  0
  -23.4943   22.7567   96.5082 H   0  0  0  0  0  0
  -28.0486   20.5060   97.4311 H   0  0  0  0  0  0
  -27.4147   21.8478   96.5553 H   0  0  0  0  0  0
  -30.0253   20.3431   95.8370 H   0  0  0  0  0  0
  -29.9070   21.9811   96.5270 H   0  0  0  0  0  0
  -28.7175   22.6734   94.5526 H   0  0  0  0  0  0
  1  2  1  0  0  0
  1 38  1  0  0  0
  1 39  1  0  0  0
  1 40  1  0  0  0
  2 37  1  0  0  0
  2  3  1  0  0  0
  2 66  1  0  0  0
  3  4  1  0  0  0
  3 41  1  0  0  0
  3 42  1  0  0  0
  4  5  1  0  0  0
  4 43  1  0  0  0
  4 44  1  0  0  0
  5  6  1  0  0  0
  5 36  1  0  0  0
  5 45  1  0  0  0
  6  7  1  0  0  0
  6 46  1  0  0  0
  6 47  1  0  0  0
  7  8  1  0  0  0
  8 35  1  0  0  0
  8  9  2  0  0  0
  9 10  1  0  0  0
  9 48  1  0  0  0
 10 11  2  0  0  0
 11 12  1  0  0  0
 11 34  1  0  0  0
 12 33  1  0  0  0
 12 13  2  0  0  0
 13 14  1  0  0  0
 13 49  1  0  0  0
 14 15  2  0  0  0
 14 50  1  0  0  0
 15 16  1  0  0  0
 15 51  1  0  0  0
 16 17  1  0  0  0
 16 33  2  0  0  0
 17 18  1  0  0  0
 17 52  1  0  0  0
 17 53  1  0  0  0
 18 31  1  0  0  0
 18 19  1  0  0  0
 19 20  2  0  0  0
 20 21  1  0  0  0
 20 29  1  0  0  0
 21 28  1  0  0  0
 21 22  2  0  0  0
 22 23  1  0  0  0
 22 54  1  0  0  0
 23 24  2  0  0  0
 23 55  1  0  0  0
 24 25  1  0  0  0
 24 56  1  0  0  0
 25 26  1  0  0  0
 25 28  2  0  0  0
 26 27  3  0  0  0
 28 57  1  0  0  0
 29 30  2  0  0  0
 29 58  1  0  0  0
 30 31  1  0  0  0
 30 59  1  0  0  0
 31 32  2  0  0  0
 33 60  1  0  0  0
 34 35  2  0  0  0
 35 61  1  0  0  0
 36 37  1  0  0  0
 36 62  1  0  0  0
 36 63  1  0  0  0
 37 64  1  0  0  0
 37 65  1  0  0  0
M  CHG  1   2   1
M  END
> <s_m_source_file>
/home/user-home/yujie/0_PBCNetv2/data/FEP/cmet/inp_ligprep.csv

> <i_m_source_file_index>
7

> <i_lp_mmshare_version>
51139

> <i_f3d_flags>
0

> <s_epik_input>
W0NIM11OMVtDSDJdW0NIMl1bQ0hdKFtDSDJdW0NIMl0xKVtDSDJdT2MyW2NIXW5jKG5bY0hdMiktYzNbY0hdW2NIXVtjSF1jKFtjSF0zKVtDSDJdbjRuYyhbY0hdW2NIXWM0PU8pLWM1W2NIXVtjSF1bY0hdYyhDI04pW2NIXTU=

> <s_epik_cmdline>
J2VwaWtfcHl0aG9uJywgJy1waHQnLCAnMi4wJywgJy1waCcsICc3LjQnLCAnLXRuJywgJzgnLCAnLW1hJywgJzIwMCcsICctaW1hZScsICc8aW5maWxlLm1hZT4nLCAnLW9tYWUnLCAnPG91dGZpbGUubWFlPic=

> <r_lp_tautomer_probability>
1

> <r_epik_Ionization_Penalty>
  0.0040

> <r_epik_Ionization_Penalty_Charging>
  0.0040

> <r_epik_Ionization_Penalty_Neutral>
  0.0000

> <r_epik_State_Penalty>
  0.0029

> <r_epik_Charging_Adjusted_Penalty>
0.0069329

> <i_epik_Tot_Q>
1

> <i_epik_Tot_abs_Q>
1

> <s_lp_Force_Field>
OPLS3e

> <r_lp_Energy>
87.8613

> <b_lp_Chiralities_Consistent>
1

> <s_lp_Variant>
lig_cmet_CHEMBL3402762_1-1

> <s_i_glide_gridfile>
cmet-001-gridgen

> <i_i_glide_lignum>
10

> <i_i_glide_rotatable_bonds>
7

> <r_i_docking_score>
-9.98039080203062

> <r_i_glide_ligand_efficiency>
-0.269740291946774

> <r_i_glide_ligand_efficiency_sa>
-0.898834494012525

> <r_i_glide_ligand_efficiency_ln>
-2.16451279140365

> <r_i_glide_gscore>
-9.98328464203062

> <r_i_glide_lipo>
-4.69146971377574

> <r_i_glide_hbond>
-0.226956335731814

> <r_i_glide_metal>
-0

> <r_i_glide_rewards>
-1.39134721455239

> <r_i_glide_evdw>
-60.6691551208496

> <r_i_glide_ecoul>
-8.16946887969971

> <r_i_glide_erotb>
0.585366710026761

> <r_i_glide_esite>
0

> <r_i_glide_emodel>
-114.127068756119

> <r_i_glide_energy>
-68.8386240005493

> <r_i_glide_einternal>
0.828690588474274

> <i_i_glide_confnum>
23

> <i_i_glide_posenum>
98

> <r_i_glide_eff_state_penalty>
0.00289384

$$$$
