lig_cmet_CHEMBL3402743_42
                    3D
 Schrodinger Suite 2020-3.
 57 59  0  0  1  0            999 V2000
  -26.9862   22.3323   98.1625 C   0  0  0  0  0  0
  -27.1020   21.9579   96.6672 N   0  3  0  0  0  0
  -27.5811   23.1688   95.8371 C   0  0  0  0  0  0
  -25.7969   21.3737   96.0788 C   0  0  0  0  0  0
  -25.4205   20.0461   96.7607 C   0  0  0  0  0  0
  -24.2171   19.3612   96.0981 C   0  0  0  0  0  0
  -23.0519   20.1828   96.2176 O   0  0  0  0  0  0
  -21.8902   19.6826   96.6889 C   0  0  0  0  0  0
  -21.7299   18.5095   97.0130 O   0  0  0  0  0  0
  -20.9465   20.6976   96.7472 N   0  0  0  0  0  0
  -19.6271   20.6504   97.2394 C   0  0  0  0  0  0
  -19.0319   19.5143   97.8149 C   0  0  0  0  0  0
  -17.7227   19.5647   98.2928 C   0  0  0  0  0  0
  -16.9999   20.7532   98.2197 C   0  0  0  0  0  0
  -17.5791   21.8901   97.6540 C   0  0  0  0  0  0
  -16.7968   23.1953   97.5841 C   0  0  0  0  0  0
  -17.1483   24.1112   98.6800 N   0  0  0  0  0  0
  -18.2958   24.8842   98.4804 N   0  0  0  0  0  0
  -18.7379   25.7071   99.3733 C   0  0  0  0  0  0
  -19.9316   26.5474   99.1491 C   0  0  0  0  0  0
  -20.1024   27.7688   99.8151 C   0  0  0  0  0  0
  -21.2217   28.5649   99.5757 C   0  0  0  0  0  0
  -21.3570   29.7479  100.2137 F   0  0  0  0  0  0
  -22.1970   28.1432   98.6748 C   0  0  0  0  0  0
  -22.0529   26.9249   98.0162 C   0  0  0  0  0  0
  -22.9986   26.5110   97.1437 F   0  0  0  0  0  0
  -20.9278   26.1341   98.2497 C   0  0  0  0  0  0
  -17.9860   25.7805  100.6150 C   0  0  0  0  0  0
  -16.8806   25.0234  100.8189 C   0  0  0  0  0  0
  -16.3638   24.1091   99.8156 C   0  0  0  0  0  0
  -15.3362   23.4426   99.9820 O   0  0  0  0  0  0
  -18.8857   21.8307   97.1575 C   0  0  0  0  0  0
  -26.1541   23.0307   98.2669 H   0  0  0  0  0  0
  -26.8211   21.4170   98.7296 H   0  0  0  0  0  0
  -27.9276   22.7901   98.4695 H   0  0  0  0  0  0
  -26.8167   23.9463   95.8972 H   0  0  0  0  0  0
  -27.7214   22.8315   94.8075 H   0  0  0  0  0  0
  -28.5292   23.5101   96.2583 H   0  0  0  0  0  0
  -25.9997   21.2130   95.0172 H   0  0  0  0  0  0
  -25.0234   22.1393   96.1810 H   0  0  0  0  0  0
  -25.1898   20.2010   97.8144 H   0  0  0  0  0  0
  -26.2711   19.3644   96.7364 H   0  0  0  0  0  0
  -24.0826   18.3783   96.5534 H   0  0  0  0  0  0
  -24.4248   19.1814   95.0423 H   0  0  0  0  0  0
  -21.2608   21.5955   96.4109 H   0  0  0  0  0  0
  -19.5492   18.5713   97.8937 H   0  0  0  0  0  0
  -17.2772   18.6849   98.7312 H   0  0  0  0  0  0
  -15.9943   20.7914   98.6135 H   0  0  0  0  0  0
  -15.7256   22.9849   97.5394 H   0  0  0  0  0  0
  -17.0059   23.6823   96.6290 H   0  0  0  0  0  0
  -19.3613   28.1424  100.5030 H   0  0  0  0  0  0
  -23.0672   28.7570   98.4974 H   0  0  0  0  0  0
  -20.8392   25.1970   97.7205 H   0  0  0  0  0  0
  -18.2987   26.4361  101.4146 H   0  0  0  0  0  0
  -16.3477   25.0945  101.7564 H   0  0  0  0  0  0
  -19.3263   22.7203   96.7303 H   0  0  0  0  0  0
  -27.8106   21.2398   96.5901 H   0  0  0  0  0  0
  1  2  1  0  0  0
  1 33  1  0  0  0
  1 34  1  0  0  0
  1 35  1  0  0  0
  2  3  1  0  0  0
  2  4  1  0  0  0
  2 57  1  0  0  0
  3 36  1  0  0  0
  3 37  1  0  0  0
  3 38  1  0  0  0
  4  5  1  0  0  0
  4 39  1  0  0  0
  4 40  1  0  0  0
  5  6  1  0  0  0
  5 41  1  0  0  0
  5 42  1  0  0  0
  6  7  1  0  0  0
  6 43  1  0  0  0
  6 44  1  0  0  0
  7  8  1  0  0  0
  8  9  2  0  0  0
  8 10  1  0  0  0
 10 11  1  0  0  0
 10 45  1  0  0  0
 11 32  1  0  0  0
 11 12  2  0  0  0
 12 13  1  0  0  0
 12 46  1  0  0  0
 13 14  2  0  0  0
 13 47  1  0  0  0
 14 15  1  0  0  0
 14 48  1  0  0  0
 15 16  1  0  0  0
 15 32  2  0  0  0
 16 17  1  0  0  0
 16 49  1  0  0  0
 16 50  1  0  0  0
 17 30  1  0  0  0
 17 18  1  0  0  0
 18 19  2  0  0  0
 19 20  1  0  0  0
 19 28  1  0  0  0
 20 27  1  0  0  0
 20 21  2  0  0  0
 21 22  1  0  0  0
 21 51  1  0  0  0
 22 23  1  0  0  0
 22 24  2  0  0  0
 24 25  1  0  0  0
 24 52  1  0  0  0
 25 26  1  0  0  0
 25 27  2  0  0  0
 27 53  1  0  0  0
 28 29  2  0  0  0
 28 54  1  0  0  0
 29 30  1  0  0  0
 29 55  1  0  0  0
 30 31  2  0  0  0
 32 56  1  0  0  0
M  CHG  1   2   1
M  END
> <s_m_source_file>
/home/user-home/yujie/0_PBCNetv2/data/FEP/cmet/inp_ligprep.csv

> <i_m_source_file_index>
11

> <i_lp_mmshare_version>
51139

> <i_f3d_flags>
0

> <s_epik_input>
W0NIM11OKFtDSDNdKVtDSDJdW0NIMl1bQ0gyXU9DKD1PKVtOSF1jMVtjSF1bY0hdW2NIXWMoW2NIXTEpW0NIMl1uMm5jKFtjSF1bY0hdYzI9TyktYzNbY0hdYyhGKVtjSF1jKEYpW2NIXTM=

> <s_epik_cmdline>
J2VwaWtfcHl0aG9uJywgJy1waHQnLCAnMi4wJywgJy1waCcsICc3LjQnLCAnLXRuJywgJzgnLCAnLW1hJywgJzIwMCcsICctaW1hZScsICc8aW5maWxlLm1hZT4nLCAnLW9tYWUnLCAnPG91dGZpbGUubWFlPic=

> <r_lp_tautomer_probability>
1

> <r_epik_Ionization_Penalty>
  0.0113

> <r_epik_Ionization_Penalty_Charging>
  0.0113

> <r_epik_Ionization_Penalty_Neutral>
  0.0000

> <r_epik_State_Penalty>
  0.0087

> <r_epik_Charging_Adjusted_Penalty>
0.0200034

> <i_epik_Tot_Q>
1

> <i_epik_Tot_abs_Q>
1

> <s_epik_Chemistry_Notes>
This compound has an ester and may undergo hydrolysis at high or low pH.

> <s_lp_Force_Field>
OPLS3e

> <r_lp_Energy>
61.4661

> <b_lp_Chiralities_Consistent>
1

> <s_lp_Variant>
lig_cmet_CHEMBL3402743_42-1

> <s_i_glide_gridfile>
cmet-001-gridgen

> <i_i_glide_lignum>
16

> <i_i_glide_rotatable_bonds>
10

> <r_i_docking_score>
-10.6794829584812

> <r_i_glide_ligand_efficiency>
-0.333733842452538

> <r_i_glide_ligand_efficiency_sa>
-1.05953890394907

> <r_i_glide_ligand_efficiency_ln>
-2.39142734611464

> <r_i_glide_gscore>
-10.6881783984812

> <r_i_glide_lipo>
-4.43370127585462

> <r_i_glide_hbond>
-0.468650217316334

> <r_i_glide_metal>
-0

> <r_i_glide_rewards>
-2.03420860227962

> <r_i_glide_evdw>
-58.0076675415039

> <r_i_glide_ecoul>
-11.7625360488892

> <r_i_glide_erotb>
0.914903236542293

> <r_i_glide_esite>
-0.00175775516435891

> <r_i_glide_emodel>
-113.820801902176

> <r_i_glide_energy>
-69.7702035903931

> <r_i_glide_einternal>
5.96734476089478

> <i_i_glide_confnum>
40

> <i_i_glide_posenum>
17

> <r_i_glide_eff_state_penalty>
0.00869544

$$$$
