lig_cmet_CHEMBL3402758_10
                    3D
 Schrodinger Suite 2020-3.
 59 62  0  0  1  0            999 V2000
  -29.6026   18.9903   94.2333 C   0  0  0  0  0  0
  -29.1826   19.7985   95.3765 N   0  0  0  0  0  0
  -29.4214   19.0516   96.6129 C   0  0  0  0  0  0
  -27.7783   20.1821   95.2076 C   0  0  0  0  0  0
  -27.2880   21.2035   96.2539 C   0  0  0  0  0  0
  -25.8062   21.5660   96.0729 C   0  0  0  0  0  0
  -25.0343   20.3747   96.2037 O   0  0  0  0  0  0
  -23.6735   20.4736   96.3932 C   0  0  0  0  0  0
  -22.9358   21.6647   96.4026 C   0  0  0  0  0  0
  -21.6022   21.6980   96.6433 N   0  0  0  0  0  0
  -20.9897   20.5083   96.9081 C   0  0  0  0  0  0
  -19.5457   20.5532   97.3189 C   0  0  0  0  0  0
  -18.8870   19.4153   97.8156 C   0  0  0  0  0  0
  -17.5651   19.4758   98.2557 C   0  0  0  0  0  0
  -16.8717   20.6806   98.2142 C   0  0  0  0  0  0
  -17.4907   21.8255   97.7107 C   0  0  0  0  0  0
  -16.7340   23.1432   97.6289 C   0  0  0  0  0  0
  -17.1371   24.0996   98.6750 N   0  0  0  0  0  0
  -18.2846   24.8549   98.4114 N   0  0  0  0  0  0
  -18.7751   25.6989   99.2629 C   0  0  0  0  0  0
  -19.9801   26.5130   98.9685 C   0  0  0  0  0  0
  -20.7946   26.1993   97.8631 C   0  0  0  0  0  0
  -21.9122   26.9812   97.5634 C   0  0  0  0  0  0
  -22.1968   28.0748   98.3814 C   0  0  0  0  0  0
  -21.4369   28.4040   99.4547 N   0  0  0  0  0  0
  -20.3664   27.6228   99.7442 C   0  0  0  0  0  0
  -18.0653   25.8196  100.5263 C   0  0  0  0  0  0
  -16.9558   25.0868  100.7895 C   0  0  0  0  0  0
  -16.3947   24.1478   99.8351 C   0  0  0  0  0  0
  -15.3654   23.5096  100.0613 O   0  0  0  0  0  0
  -18.8127   21.7505   97.2645 C   0  0  0  0  0  0
  -21.6184   19.2981   96.8849 N   0  0  0  0  0  0
  -22.9503   19.3024   96.6155 C   0  0  0  0  0  0
  -29.4961   19.5513   93.3027 H   0  0  0  0  0  0
  -30.6548   18.7093   94.3187 H   0  0  0  0  0  0
  -29.0140   18.0746   94.1430 H   0  0  0  0  0  0
  -29.2320   19.6702   97.4908 H   0  0  0  0  0  0
  -30.4640   18.7307   96.6782 H   0  0  0  0  0  0
  -28.7884   18.1641   96.6811 H   0  0  0  0  0  0
  -27.1297   19.3075   95.2121 H   0  0  0  0  0  0
  -27.6382   20.6256   94.2201 H   0  0  0  0  0  0
  -27.8842   22.1151   96.1760 H   0  0  0  0  0  0
  -27.4154   20.8201   97.2667 H   0  0  0  0  0  0
  -25.6188   22.0255   95.0981 H   0  0  0  0  0  0
  -25.5420   22.2969   96.8418 H   0  0  0  0  0  0
  -23.3942   22.6238   96.2151 H   0  0  0  0  0  0
  -19.3959   18.4636   97.8547 H   0  0  0  0  0  0
  -17.0883   18.5825   98.6311 H   0  0  0  0  0  0
  -15.8517   20.7226   98.5744 H   0  0  0  0  0  0
  -15.6571   22.9568   97.6313 H   0  0  0  0  0  0
  -16.9167   23.5929   96.6503 H   0  0  0  0  0  0
  -20.5676   25.3547   97.2260 H   0  0  0  0  0  0
  -22.5431   26.7437   96.7172 H   0  0  0  0  0  0
  -23.0548   28.7034   98.1909 H   0  0  0  0  0  0
  -19.8112   27.9410  100.6138 H   0  0  0  0  0  0
  -18.4052   26.4912  101.2998 H   0  0  0  0  0  0
  -16.4517   25.1974  101.7374 H   0  0  0  0  0  0
  -19.2723   22.6553   96.8911 H   0  0  0  0  0  0
  -23.4499   18.3445   96.6150 H   0  0  0  0  0  0
  1  2  1  0  0  0
  1 34  1  0  0  0
  1 35  1  0  0  0
  1 36  1  0  0  0
  2  3  1  0  0  0
  2  4  1  0  0  0
  3 37  1  0  0  0
  3 38  1  0  0  0
  3 39  1  0  0  0
  4  5  1  0  0  0
  4 40  1  0  0  0
  4 41  1  0  0  0
  5  6  1  0  0  0
  5 42  1  0  0  0
  5 43  1  0  0  0
  6  7  1  0  0  0
  6 44  1  0  0  0
  6 45  1  0  0  0
  7  8  1  0  0  0
  8 33  1  0  0  0
  8  9  2  0  0  0
  9 10  1  0  0  0
  9 46  1  0  0  0
 10 11  2  0  0  0
 11 12  1  0  0  0
 11 32  1  0  0  0
 12 31  1  0  0  0
 12 13  2  0  0  0
 13 14  1  0  0  0
 13 47  1  0  0  0
 14 15  2  0  0  0
 14 48  1  0  0  0
 15 16  1  0  0  0
 15 49  1  0  0  0
 16 17  1  0  0  0
 16 31  2  0  0  0
 17 18  1  0  0  0
 17 50  1  0  0  0
 17 51  1  0  0  0
 18 29  1  0  0  0
 18 19  1  0  0  0
 19 20  2  0  0  0
 20 21  1  0  0  0
 20 27  1  0  0  0
 21 26  1  0  0  0
 21 22  2  0  0  0
 22 23  1  0  0  0
 22 52  1  0  0  0
 23 24  2  0  0  0
 23 53  1  0  0  0
 24 25  1  0  0  0
 24 54  1  0  0  0
 25 26  2  0  0  0
 26 55  1  0  0  0
 27 28  2  0  0  0
 27 56  1  0  0  0
 28 29  1  0  0  0
 28 57  1  0  0  0
 29 30  2  0  0  0
 31 58  1  0  0  0
 32 33  2  0  0  0
 33 59  1  0  0  0
M  END
> <s_m_source_file>
/home/user-home/yujie/0_PBCNetv2/data/FEP/cmet/inp_ligprep.csv

> <i_m_source_file_index>
23

> <i_lp_mmshare_version>
51139

> <i_f3d_flags>
0

> <s_epik_input>
W0NIM11OKFtDSDNdKVtDSDJdW0NIMl1bQ0gyXU9jMVtjSF1uYyhuW2NIXTEpLWMyW2NIXVtjSF1bY0hdYyhbY0hdMilbQ0gyXW4zbmMoW2NIXVtjSF1jMz1PKS1jNFtjSF1bY0hdW2NIXW5bY0hdNA==

> <s_epik_cmdline>
J2VwaWtfcHl0aG9uJywgJy1waHQnLCAnMi4wJywgJy1waCcsICc3LjQnLCAnLXRuJywgJzgnLCAnLW1hJywgJzIwMCcsICctaW1hZScsICc8aW5maWxlLm1hZT4nLCAnLW9tYWUnLCAnPG91dGZpbGUubWFlPic=

> <r_lp_tautomer_probability>
1

> <r_epik_Ionization_Penalty>
  2.3416

> <r_epik_Ionization_Penalty_Charging>
  0.0000

> <r_epik_Ionization_Penalty_Neutral>
  2.3416

> <r_epik_State_Penalty>
  2.4935

> <r_epik_Charging_Adjusted_Penalty>
2.49347

> <i_epik_Tot_Q>
0

> <i_epik_Tot_abs_Q>
0

> <s_lp_Force_Field>
OPLS3e

> <r_lp_Energy>
73.9961

> <b_lp_Chiralities_Consistent>
1

> <s_lp_Variant>
lig_cmet_CHEMBL3402758_10-2

> <s_i_glide_gridfile>
cmet-001-gridgen

> <i_i_glide_lignum>
35

> <i_i_glide_rotatable_bonds>
9

> <r_i_docking_score>
-7.93288847097051

> <r_i_glide_ligand_efficiency>
-0.240390559726379

> <r_i_glide_ligand_efficiency_sa>
-0.7710609720306

> <r_i_glide_ligand_efficiency_ln>
-1.76423332164559

> <r_i_glide_gscore>
-10.4263584709705

> <r_i_glide_lipo>
-4.36387148012927

> <r_i_glide_hbond>
-0.238345463138939

> <r_i_glide_metal>
-0

> <r_i_glide_rewards>
-2.6319374381035

> <r_i_glide_evdw>
-59.2993240356445

> <r_i_glide_ecoul>
-6.95779895782471

> <r_i_glide_erotb>
0.816431955857127

> <r_i_glide_esite>
0

> <r_i_glide_emodel>
-108.273470226679

> <r_i_glide_energy>
-66.2571229934692

> <r_i_glide_einternal>
2.48238658905029

> <i_i_glide_confnum>
100

> <i_i_glide_posenum>
200

> <r_i_glide_eff_state_penalty>
2.49347

$$$$
