Jnk1_18630-1
                    3D
 Schrodinger Suite 2024-1.
 41 42  0  0  1  0            999 V2000
   25.8151   98.5124   30.2106 C   0  0  0  0  0  0
   25.4581   97.0900   29.7723 C   0  0  0  0  0  0
   24.9241   96.3905   30.8930 O   0  0  0  0  0  0
   24.6690   95.0370   30.7721 C   0  0  0  0  0  0
   24.8053   94.4676   29.5472 N   0  0  0  0  0  0
   24.5819   93.1452   29.3925 C   0  0  0  0  0  0
   24.7572   92.5811   28.1074 N   0  0  0  0  0  0
   24.1562   91.5013   27.5769 C   0  0  0  0  0  0
   23.2809   90.8511   28.1495 O   0  0  0  0  0  0
   24.5341   91.0994   26.1468 C   0  0  0  0  0  0
   25.7808   91.7969   25.6170 C   0  0  0  0  0  0
   25.7155   93.1273   25.1458 C   0  0  0  0  0  0
   26.8792   93.7773   24.6923 C   0  0  0  0  0  0
   28.1147   93.0995   24.7002 C   0  0  0  0  0  0
   29.3723   93.8099   24.2456 C   0  0  0  0  0  0
   28.1771   91.7611   25.1394 C   0  0  0  0  0  0
   27.0143   91.1126   25.5993 C   0  0  0  0  0  0
   24.2545   92.3286   30.4957 C   0  0  0  0  0  0
   24.0863   92.9039   31.7605 C   0  0  0  0  0  0
   23.7351   92.0549   32.8054 N   0  0  0  0  0  0
   24.2870   94.2947   31.9167 C   0  0  0  0  0  0
   24.1319   94.9653   33.2045 C   0  0  0  0  0  0
   24.0057   95.5049   34.2236 N   0  0  0  0  0  0
   26.2094   99.0900   29.3732 H   0  0  0  0  0  0
   26.5717   98.5025   30.9973 H   0  0  0  0  0  0
   24.9380   99.0364   30.5952 H   0  0  0  0  0  0
   24.7254   97.1216   28.9630 H   0  0  0  0  0  0
   26.3569   96.5922   29.3964 H   0  0  0  0  0  0
   25.3666   93.0954   27.4886 H   0  0  0  0  0  0
   24.6666   90.0182   26.0969 H   0  0  0  0  0  0
   23.6759   91.3375   25.5274 H   0  0  0  0  0  0
   24.7730   93.6558   25.1364 H   0  0  0  0  0  0
   26.8220   94.7984   24.3468 H   0  0  0  0  0  0
   30.2542   93.3873   24.7279 H   0  0  0  0  0  0
   29.4904   93.7158   23.1660 H   0  0  0  0  0  0
   29.3286   94.8702   24.4979 H   0  0  0  0  0  0
   29.1179   91.2294   25.1333 H   0  0  0  0  0  0
   27.0774   90.0891   25.9375 H   0  0  0  0  0  0
   24.1249   91.2642   30.3909 H   0  0  0  0  0  0
   23.5269   92.4015   33.7337 H   0  0  0  0  0  0
   23.5636   91.0692   32.6493 H   0  0  0  0  0  0
  1  2  1  0  0  0
  1 24  1  0  0  0
  1 25  1  0  0  0
  1 26  1  0  0  0
  2  3  1  0  0  0
  2 27  1  0  0  0
  2 28  1  0  0  0
  3  4  1  0  0  0
  4 21  1  0  0  0
  4  5  2  0  0  0
  5  6  1  0  0  0
  6  7  1  0  0  0
  6 18  2  0  0  0
  7  8  1  0  0  0
  7 29  1  0  0  0
  8  9  2  0  0  0
  8 10  1  0  0  0
 10 11  1  0  0  0
 10 30  1  0  0  0
 10 31  1  0  0  0
 11 17  1  0  0  0
 11 12  2  0  0  0
 12 13  1  0  0  0
 12 32  1  0  0  0
 13 14  2  0  0  0
 13 33  1  0  0  0
 14 15  1  0  0  0
 14 16  1  0  0  0
 15 34  1  0  0  0
 15 35  1  0  0  0
 15 36  1  0  0  0
 16 17  2  0  0  0
 16 37  1  0  0  0
 17 38  1  0  0  0
 18 19  1  0  0  0
 18 39  1  0  0  0
 19 20  1  0  0  0
 19 21  2  0  0  0
 20 40  1  0  0  0
 20 41  1  0  0  0
 21 22  1  0  0  0
 22 23  3  0  0  0
M  END
> <Source File Index>
1

> <Ionization Penalty>
0

> <Source File Index>
3

> <State Penalty>
0

> <Tot Q>
0

> <entry id>
18127

> <flags>
0

> <subgroup collapsed>
0

> <tautomer probability>
1

> <docking score>
-7.71892

> <glide emodel>
-64.3853

> <glide gscore>
-7.71892

> <Source File>
Jnk1_18630-1.sdf

> <Source Path>
C:\Users\yujie\AppData\Roaming\MobaXterm\slash\tmp\dragdrop

> <entry id>
20083

> <Source File>
glide-dock_SP_FEP_Jnk1_5_pv.maegz

> <Source Path>
C:\Users\yujie\Desktop\FEPs\glide-dock_SP_FEP_Jnk1_5

> <job name>
ligprep_FEP_Jnk1

> <subgroup title>
glide-dock_SP_FEP_Jnk1_5_pv

> <subgroupid>
glide-dock_SP_FEP_Jnk1_5_pv

$$$$
