18660-1
                    3D
 Schrodinger Suite 2024-1.
 52 53  0  0  1  0            999 V2000
   24.5305   97.2363   27.0046 C   0  0  0  0  0  0
   25.8437   97.7891   28.1348 S   0  0  0  0  0  0
   26.6681   96.6208   28.4612 O   0  0  0  0  0  0
   26.4399   98.9958   27.5491 O   0  0  0  0  0  0
   24.9286   98.3124   29.6308 C   0  0  0  0  0  0
   24.0304   97.2073   30.2038 C   0  0  0  0  0  0
   24.7298   96.3556   31.1108 O   0  0  0  0  0  0
   24.5865   94.9884   30.9612 C   0  0  0  0  0  0
   24.6750   94.4926   29.7047 N   0  0  0  0  0  0
   24.5488   93.1639   29.4993 C   0  0  0  0  0  0
   24.2996   92.2906   30.5817 C   0  0  0  0  0  0
   24.1505   92.7982   31.8808 C   0  0  0  0  0  0
   23.8180   91.8895   32.8870 N   0  0  0  0  0  0
   24.3097   94.1898   32.0923 C   0  0  0  0  0  0
   24.1479   94.8375   33.3937 C   0  0  0  0  0  0
   24.0166   95.3700   34.4215 N   0  0  0  0  0  0
   24.7025   92.6789   28.1770 N   0  0  0  0  0  0
   24.2189   91.5635   27.6014 C   0  0  0  0  0  0
   23.5248   90.7140   28.1666 O   0  0  0  0  0  0
   24.4762   91.4281   26.1030 C   0  0  0  0  0  0
   25.9507   91.3863   25.7346 C   0  0  0  0  0  0
   26.6700   92.5780   25.4962 C   0  0  0  0  0  0
   25.9977   93.7732   25.6375 O   0  0  0  0  0  0
   26.6212   94.9303   25.0944 C   0  0  0  0  0  0
   28.0304   92.4885   25.1116 C   0  0  0  0  0  0
   28.6498   91.2381   24.9355 C   0  0  0  0  0  0
   27.9204   90.0456   25.1417 C   0  0  0  0  0  0
   26.5783   90.1378   25.5513 C   0  0  0  0  0  0
   28.4349   88.7810   24.9660 O   0  0  0  0  0  0
   29.7669   88.6587   24.4962 C   0  0  0  0  0  0
   24.9152   97.3396   25.9951 H   0  0  0  0  0  0
   23.6558   97.8629   27.1317 H   0  0  0  0  0  0
   24.3069   96.1927   27.2221 H   0  0  0  0  0  0
   25.6646   98.6602   30.3537 H   0  0  0  0  0  0
   24.3344   99.1750   29.3325 H   0  0  0  0  0  0
   23.2462   97.6836   30.7919 H   0  0  0  0  0  0
   23.5025   96.6814   29.4103 H   0  0  0  0  0  0
   24.2139   91.2250   30.4246 H   0  0  0  0  0  0
   23.6570   92.1507   33.8525 H   0  0  0  0  0  0
   23.8397   90.8859   32.7090 H   0  0  0  0  0  0
   25.2164   93.2879   27.5528 H   0  0  0  0  0  0
   23.9864   90.5340   25.7234 H   0  0  0  0  0  0
   24.0020   92.2747   25.6143 H   0  0  0  0  0  0
   25.8815   95.7156   24.9815 H   0  0  0  0  0  0
   27.4130   95.2967   25.7489 H   0  0  0  0  0  0
   27.0247   94.7549   24.0960 H   0  0  0  0  0  0
   28.6290   93.3698   24.9387 H   0  0  0  0  0  0
   29.6846   91.2222   24.6323 H   0  0  0  0  0  0
   26.0238   89.2241   25.7008 H   0  0  0  0  0  0
   30.0101   87.6028   24.3809 H   0  0  0  0  0  0
   29.8893   89.1338   23.5220 H   0  0  0  0  0  0
   30.4780   89.0873   25.2032 H   0  0  0  0  0  0
  1  2  1  0  0  0
  1 31  1  0  0  0
  1 32  1  0  0  0
  1 33  1  0  0  0
  2  3  2  0  0  0
  2  4  2  0  0  0
  2  5  1  0  0  0
  5  6  1  0  0  0
  5 34  1  0  0  0
  5 35  1  0  0  0
  6  7  1  0  0  0
  6 36  1  0  0  0
  6 37  1  0  0  0
  7  8  1  0  0  0
  8 14  1  0  0  0
  8  9  2  0  0  0
  9 10  1  0  0  0
 10 11  2  0  0  0
 10 17  1  0  0  0
 11 12  1  0  0  0
 11 38  1  0  0  0
 12 13  1  0  0  0
 12 14  2  0  0  0
 13 39  1  0  0  0
 13 40  1  0  0  0
 14 15  1  0  0  0
 15 16  3  0  0  0
 17 18  1  0  0  0
 17 41  1  0  0  0
 18 19  2  0  0  0
 18 20  1  0  0  0
 20 21  1  0  0  0
 20 42  1  0  0  0
 20 43  1  0  0  0
 21 28  1  0  0  0
 21 22  2  0  0  0
 22 23  1  0  0  0
 22 25  1  0  0  0
 23 24  1  0  0  0
 24 44  1  0  0  0
 24 45  1  0  0  0
 24 46  1  0  0  0
 25 26  2  0  0  0
 25 47  1  0  0  0
 26 27  1  0  0  0
 26 48  1  0  0  0
 27 28  2  0  0  0
 27 29  1  0  0  0
 28 49  1  0  0  0
 29 30  1  0  0  0
 30 50  1  0  0  0
 30 51  1  0  0  0
 30 52  1  0  0  0
M  END
> <Tot Q>
0

> <flags>
0

> <Source File Index>
1

> <stars>
0

> <subgroup collapsed>
0

> <Ionization Penalty>
0

> <State Penalty>
0

> <docking score>
-7.33876

> <glide emodel>
-69.3757

> <glide gscore>
-7.33876

> <dG.exp>
-8.70259

> <Source File>
glide-dock_SP_18_pv.maegz

> <Source Path>
C:\Users\yujie\Documents\Schrodinger\glide-dock_SP_18

> <entry id>
1915

> <job name>
glide-dock_SP_18

> <subgroup title>
glide-dock_SP_18_pv

> <subgroupid>
glide-dock_SP_18_pv

$$$$
