Jnk1_18627-1
                    3D
 Schrodinger Suite 2024-1.
 38 39  0  0  1  0            999 V2000
   26.3539   96.8842   29.1658 C   0  0  0  0  0  0
   24.9114   96.9609   29.6904 C   0  0  0  0  0  0
   24.7266   96.1846   30.8752 O   0  0  0  0  0  0
   24.5799   94.8122   30.7789 C   0  0  0  0  0  0
   24.6691   94.2507   29.5497 N   0  0  0  0  0  0
   24.5187   92.9208   29.4023 C   0  0  0  0  0  0
   24.6696   92.3898   28.1035 N   0  0  0  0  0  0
   24.1832   91.2535   27.5808 C   0  0  0  0  0  0
   23.4698   90.4615   28.1937 O   0  0  0  0  0  0
   24.5055   90.9725   26.1098 C   0  0  0  0  0  0
   25.7294   91.7278   25.6077 C   0  0  0  0  0  0
   26.9857   91.0876   25.5765 C   0  0  0  0  0  0
   28.1254   91.7859   25.1324 C   0  0  0  0  0  0
   28.0158   93.1295   24.7277 C   0  0  0  0  0  0
   29.4204   93.9902   24.2119 Cl  0  0  0  0  0  0
   26.7617   93.7713   24.7460 C   0  0  0  0  0  0
   25.6193   93.0705   25.1784 C   0  0  0  0  0  0
   24.2817   92.0842   30.5141 C   0  0  0  0  0  0
   24.1498   92.6535   31.7878 C   0  0  0  0  0  0
   23.8685   91.7932   32.8457 N   0  0  0  0  0  0
   24.3004   94.0533   31.9379 C   0  0  0  0  0  0
   24.1666   94.7214   33.2289 C   0  0  0  0  0  0
   24.0594   95.2550   34.2519 N   0  0  0  0  0  0
   26.4839   97.5424   28.3065 H   0  0  0  0  0  0
   26.6249   95.8800   28.8438 H   0  0  0  0  0  0
   27.0656   97.1917   29.9312 H   0  0  0  0  0  0
   24.6892   97.9968   29.9467 H   0  0  0  0  0  0
   24.1908   96.6896   28.9166 H   0  0  0  0  0  0
   25.1626   92.9871   27.4566 H   0  0  0  0  0  0
   24.6537   89.9008   25.9677 H   0  0  0  0  0  0
   23.6305   91.2520   25.5293 H   0  0  0  0  0  0
   27.0808   90.0607   25.8967 H   0  0  0  0  0  0
   29.0871   91.2927   25.1120 H   0  0  0  0  0  0
   26.6776   94.8002   24.4273 H   0  0  0  0  0  0
   24.6604   93.5688   25.1850 H   0  0  0  0  0  0
   24.1960   91.0138   30.4119 H   0  0  0  0  0  0
   23.6213   92.1404   33.7653 H   0  0  0  0  0  0
   23.7328   90.7978   32.6980 H   0  0  0  0  0  0
  1  2  1  0  0  0
  1 24  1  0  0  0
  1 25  1  0  0  0
  1 26  1  0  0  0
  2  3  1  0  0  0
  2 27  1  0  0  0
  2 28  1  0  0  0
  3  4  1  0  0  0
  4 21  1  0  0  0
  4  5  2  0  0  0
  5  6  1  0  0  0
  6  7  1  0  0  0
  6 18  2  0  0  0
  7  8  1  0  0  0
  7 29  1  0  0  0
  8  9  2  0  0  0
  8 10  1  0  0  0
 10 11  1  0  0  0
 10 30  1  0  0  0
 10 31  1  0  0  0
 11 17  1  0  0  0
 11 12  2  0  0  0
 12 13  1  0  0  0
 12 32  1  0  0  0
 13 14  2  0  0  0
 13 33  1  0  0  0
 14 15  1  0  0  0
 14 16  1  0  0  0
 16 17  2  0  0  0
 16 34  1  0  0  0
 17 35  1  0  0  0
 18 19  1  0  0  0
 18 36  1  0  0  0
 19 20  1  0  0  0
 19 21  2  0  0  0
 20 37  1  0  0  0
 20 38  1  0  0  0
 21 22  1  0  0  0
 22 23  3  0  0  0
M  END
> <Tot Q>
0

> <Source File Index>
1

> <i_f3d_flags>
0

> <subgroup collapsed>
0

> <Ionization Penalty>
0

> <State Penalty>
0

> <docking score>
-8.24377

> <glide emodel>
-66.6978

> <glide gscore>
-8.24377

> <tautomer probability>
1

> <Source File>
Jnk1_18627-1.sdf

> <Source Path>
C:\Users\yujie\AppData\Roaming\MobaXterm\slash\tmp\dragdrop

> <entry id>
20080

> <job name>
glide-dock_SP_FEP_Jnk1

> <subgroup title>
glide-dock_SP_FEP_Jnk1_pv

> <subgroupid>
glide-dock_SP_FEP_Jnk1_pv2

$$$$
