Jnk1_18631-1
                    3D
 Schrodinger Suite 2024-1.
 42 43  0  0  1  0            999 V2000
   25.8462   98.5694   30.3721 C   0  0  0  0  0  0
   25.4804   97.1625   29.8923 C   0  0  0  0  0  0
   24.9463   96.4289   30.9915 O   0  0  0  0  0  0
   24.6690   95.0852   30.8204 C   0  0  0  0  0  0
   24.7916   94.5641   29.5750 N   0  0  0  0  0  0
   24.5407   93.2565   29.3621 C   0  0  0  0  0  0
   24.6689   92.7777   28.0366 N   0  0  0  0  0  0
   24.1660   91.6710   27.4623 C   0  0  0  0  0  0
   23.5220   90.7984   28.0416 O   0  0  0  0  0  0
   24.3573   91.5744   25.9515 C   0  0  0  0  0  0
   25.8198   91.6828   25.5405 C   0  0  0  0  0  0
   26.5711   90.5023   25.3691 C   0  0  0  0  0  0
   27.9171   90.5678   24.9675 C   0  0  0  0  0  0
   28.5153   91.8188   24.7302 C   0  0  0  0  0  0
   27.7715   93.0014   24.8993 C   0  0  0  0  0  0
   26.4152   92.9486   25.3117 C   0  0  0  0  0  0
   25.6336   94.0694   25.5087 O   0  0  0  0  0  0
   26.2232   95.3470   25.3174 C   0  0  0  0  0  0
   24.1894   92.3997   30.4294 C   0  0  0  0  0  0
   24.0354   92.9289   31.7188 C   0  0  0  0  0  0
   23.6412   92.0547   32.7292 N   0  0  0  0  0  0
   24.2695   94.3077   31.9304 C   0  0  0  0  0  0
   24.1112   94.9342   33.2410 C   0  0  0  0  0  0
   23.9857   95.4357   34.2775 N   0  0  0  0  0  0
   26.2473   99.1674   29.5535 H   0  0  0  0  0  0
   26.6031   98.5320   31.1565 H   0  0  0  0  0  0
   24.9729   99.0894   30.7679 H   0  0  0  0  0  0
   24.7466   97.2206   29.0858 H   0  0  0  0  0  0
   26.3749   96.6740   29.5005 H   0  0  0  0  0  0
   25.1191   93.4187   27.3982 H   0  0  0  0  0  0
   23.9230   90.6516   25.5678 H   0  0  0  0  0  0
   23.7852   92.3965   25.5294 H   0  0  0  0  0  0
   26.1090   89.5391   25.5294 H   0  0  0  0  0  0
   28.4853   89.6592   24.8288 H   0  0  0  0  0  0
   29.5477   91.8710   24.4163 H   0  0  0  0  0  0
   28.2686   93.9412   24.7154 H   0  0  0  0  0  0
   25.4820   96.1192   25.5246 H   0  0  0  0  0  0
   27.0616   95.5045   25.9976 H   0  0  0  0  0  0
   26.5568   95.4838   24.2885 H   0  0  0  0  0  0
   24.0265   91.3438   30.2856 H   0  0  0  0  0  0
   23.4709   92.3651   33.6785 H   0  0  0  0  0  0
   23.4913   91.0686   32.5495 H   0  0  0  0  0  0
  1  2  1  0  0  0
  1 25  1  0  0  0
  1 26  1  0  0  0
  1 27  1  0  0  0
  2  3  1  0  0  0
  2 28  1  0  0  0
  2 29  1  0  0  0
  3  4  1  0  0  0
  4 22  1  0  0  0
  4  5  2  0  0  0
  5  6  1  0  0  0
  6  7  1  0  0  0
  6 19  2  0  0  0
  7  8  1  0  0  0
  7 30  1  0  0  0
  8  9  2  0  0  0
  8 10  1  0  0  0
 10 11  1  0  0  0
 10 31  1  0  0  0
 10 32  1  0  0  0
 11 16  1  0  0  0
 11 12  2  0  0  0
 12 13  1  0  0  0
 12 33  1  0  0  0
 13 14  2  0  0  0
 13 34  1  0  0  0
 14 15  1  0  0  0
 14 35  1  0  0  0
 15 16  2  0  0  0
 15 36  1  0  0  0
 16 17  1  0  0  0
 17 18  1  0  0  0
 18 37  1  0  0  0
 18 38  1  0  0  0
 18 39  1  0  0  0
 19 20  1  0  0  0
 19 40  1  0  0  0
 20 21  1  0  0  0
 20 22  2  0  0  0
 21 41  1  0  0  0
 21 42  1  0  0  0
 22 23  1  0  0  0
 23 24  3  0  0  0
M  END
> <Source File Index>
1

> <Ionization Penalty>
0

> <Source File Index>
4

> <State Penalty>
0

> <Tot Q>
0

> <entry id>
18128

> <flags>
0

> <subgroup collapsed>
0

> <tautomer probability>
1

> <docking score>
-7.66224

> <glide emodel>
-67.6203

> <glide gscore>
-7.66224

> <Source File>
Jnk1_18631-1.sdf

> <Source Path>
C:\Users\yujie\AppData\Roaming\MobaXterm\slash\tmp\dragdrop

> <entry id>
20084

> <Source File>
glide-dock_SP_FEP_Jnk1_5_pv.maegz

> <Source Path>
C:\Users\yujie\Desktop\FEPs\glide-dock_SP_FEP_Jnk1_5

> <job name>
ligprep_FEP_Jnk1

> <subgroup title>
glide-dock_SP_FEP_Jnk1_5_pv

> <subgroupid>
glide-dock_SP_FEP_Jnk1_5_pv

$$$$
