Jnk1_18628-1
                    3D
 Schrodinger Suite 2024-1.
 41 42  0  0  1  0            999 V2000
   26.2765   96.9428   29.1720 C   0  0  0  0  0  0
   24.8440   96.9443   29.7254 C   0  0  0  0  0  0
   24.7205   96.1364   30.8957 O   0  0  0  0  0  0
   24.5826   94.7647   30.7740 C   0  0  0  0  0  0
   24.6995   94.2205   29.5397 N   0  0  0  0  0  0
   24.5442   92.8936   29.3698 C   0  0  0  0  0  0
   24.7072   92.3804   28.0653 N   0  0  0  0  0  0
   24.1872   91.2749   27.5121 C   0  0  0  0  0  0
   23.4969   90.4552   28.1144 O   0  0  0  0  0  0
   24.4136   91.0969   26.0111 C   0  0  0  0  0  0
   25.7938   91.5570   25.5328 C   0  0  0  0  0  0
   26.7955   90.5756   25.3654 C   0  0  0  0  0  0
   28.0953   90.9300   24.9618 C   0  0  0  0  0  0
   28.4060   92.2764   24.7051 C   0  0  0  0  0  0
   27.4096   93.2604   24.8332 C   0  0  0  0  0  0
   26.1017   92.9136   25.2336 C   0  0  0  0  0  0
   25.0701   94.0249   25.3115 C   0  0  0  0  0  0
   24.2600   92.0459   30.4610 C   0  0  0  0  0  0
   24.0886   92.5977   31.7369 C   0  0  0  0  0  0
   23.7234   91.7273   32.7596 N   0  0  0  0  0  0
   24.2691   93.9915   31.9151 C   0  0  0  0  0  0
   24.1132   94.6473   33.2097 C   0  0  0  0  0  0
   23.9906   95.1751   34.2336 N   0  0  0  0  0  0
   26.3594   97.6252   28.3263 H   0  0  0  0  0  0
   26.5820   95.9570   28.8225 H   0  0  0  0  0  0
   26.9940   97.2595   29.9299 H   0  0  0  0  0  0
   24.5796   97.9630   30.0087 H   0  0  0  0  0  0
   24.1216   96.6573   28.9590 H   0  0  0  0  0  0
   25.2026   92.9858   27.4275 H   0  0  0  0  0  0
   24.2699   90.0510   25.7469 H   0  0  0  0  0  0
   23.6042   91.6283   25.5292 H   0  0  0  0  0  0
   26.5651   89.5338   25.5293 H   0  0  0  0  0  0
   28.8504   90.1672   24.8415 H   0  0  0  0  0  0
   29.4031   92.5535   24.3956 H   0  0  0  0  0  0
   27.6553   94.2901   24.6155 H   0  0  0  0  0  0
   25.2691   94.7782   24.5490 H   0  0  0  0  0  0
   24.0639   93.6550   25.1341 H   0  0  0  0  0  0
   25.1004   94.5189   26.2831 H   0  0  0  0  0  0
   24.1575   90.9785   30.3419 H   0  0  0  0  0  0
   23.5210   92.0531   33.6967 H   0  0  0  0  0  0
   23.6236   90.7289   32.6028 H   0  0  0  0  0  0
  1  2  1  0  0  0
  1 24  1  0  0  0
  1 25  1  0  0  0
  1 26  1  0  0  0
  2  3  1  0  0  0
  2 27  1  0  0  0
  2 28  1  0  0  0
  3  4  1  0  0  0
  4 21  1  0  0  0
  4  5  2  0  0  0
  5  6  1  0  0  0
  6  7  1  0  0  0
  6 18  2  0  0  0
  7  8  1  0  0  0
  7 29  1  0  0  0
  8  9  2  0  0  0
  8 10  1  0  0  0
 10 11  1  0  0  0
 10 30  1  0  0  0
 10 31  1  0  0  0
 11 16  1  0  0  0
 11 12  2  0  0  0
 12 13  1  0  0  0
 12 32  1  0  0  0
 13 14  2  0  0  0
 13 33  1  0  0  0
 14 15  1  0  0  0
 14 34  1  0  0  0
 15 16  2  0  0  0
 15 35  1  0  0  0
 16 17  1  0  0  0
 17 36  1  0  0  0
 17 37  1  0  0  0
 17 38  1  0  0  0
 18 19  1  0  0  0
 18 39  1  0  0  0
 19 20  1  0  0  0
 19 21  2  0  0  0
 20 40  1  0  0  0
 20 41  1  0  0  0
 21 22  1  0  0  0
 22 23  3  0  0  0
M  END
> <Tot Q>
0

> <Source File Index>
1

> <i_f3d_flags>
0

> <subgroup collapsed>
0

> <Ionization Penalty>
0

> <State Penalty>
0

> <docking score>
-8.16866

> <glide emodel>
-66.4664

> <glide gscore>
-8.16866

> <tautomer probability>
1

> <Source File>
Jnk1_18628-1.sdf

> <Source Path>
C:\Users\yujie\AppData\Roaming\MobaXterm\slash\tmp\dragdrop

> <entry id>
20081

> <job name>
glide-dock_SP_FEP_Jnk1

> <subgroup title>
glide-dock_SP_FEP_Jnk1_pv

> <subgroupid>
glide-dock_SP_FEP_Jnk1_pv3

$$$$
