Jnk1_18638-1
                    3D
 Schrodinger Suite 2024-1.
 52 53  0  0  1  0            999 V2000
   26.4793   96.7949   29.1794 C   0  0  0  0  0  0
   25.0957   97.0349   29.8016 C   0  0  0  0  0  0
   24.8688   96.2280   30.9550 O   0  0  0  0  0  0
   24.6167   94.8761   30.8053 C   0  0  0  0  0  0
   24.6703   94.3586   29.5565 N   0  0  0  0  0  0
   24.4210   93.0506   29.3496 C   0  0  0  0  0  0
   24.5152   92.5984   28.0156 N   0  0  0  0  0  0
   24.1496   91.4385   27.4478 C   0  0  0  0  0  0
   23.6970   90.4579   28.0402 O   0  0  0  0  0  0
   24.2964   91.4107   25.9322 C   0  0  0  0  0  0
   25.7503   91.5930   25.5204 C   0  0  0  0  0  0
   26.5278   90.4508   25.2560 C   0  0  0  0  0  0
   27.8705   90.5556   24.8251 C   0  0  0  0  0  0
   28.6536   89.4651   24.5026 O   0  0  0  0  0  0
   28.0638   88.1736   24.5174 C   0  0  0  0  0  0
   28.4275   91.8479   24.7019 C   0  0  0  0  0  0
   30.1193   92.0639   24.1330 S   0  0  0  0  0  0
   30.0160   91.7446   22.3310 C   0  0  0  0  0  0
   30.4888   93.4751   24.3200 O   0  0  0  0  0  0
   30.9641   91.0170   24.7286 O   0  0  0  0  0  0
   27.6546   92.9995   24.9571 C   0  0  0  0  0  0
   26.3059   92.8846   25.3716 C   0  0  0  0  0  0
   25.4978   93.9696   25.6461 O   0  0  0  0  0  0
   26.0592   95.2733   25.5664 C   0  0  0  0  0  0
   24.0935   92.1937   30.4219 C   0  0  0  0  0  0
   23.9964   92.7213   31.7173 C   0  0  0  0  0  0
   23.6165   91.8468   32.7299 N   0  0  0  0  0  0
   24.2695   94.0961   31.9292 C   0  0  0  0  0  0
   24.1815   94.7238   33.2438 C   0  0  0  0  0  0
   24.1112   95.2282   34.2834 N   0  0  0  0  0  0
   26.6692   97.5349   28.4017 H   0  0  0  0  0  0
   26.5683   95.8159   28.7128 H   0  0  0  0  0  0
   27.2638   96.8573   29.9288 H   0  0  0  0  0  0
   25.0407   98.0753   30.1257 H   0  0  0  0  0  0
   24.3028   96.9073   29.0644 H   0  0  0  0  0  0
   24.8608   93.2928   27.3653 H   0  0  0  0  0  0
   23.8755   90.4886   25.5294 H   0  0  0  0  0  0
   23.6952   92.2222   25.5297 H   0  0  0  0  0  0
   26.0580   89.4841   25.3686 H   0  0  0  0  0  0
   28.7790   87.4499   24.1288 H   0  0  0  0  0  0
   27.8101   87.8681   25.5294 H   0  0  0  0  0  0
   27.1751   88.1256   23.8897 H   0  0  0  0  0  0
   31.0038   91.8644   21.8900 H   0  0  0  0  0  0
   29.6639   90.7276   22.1658 H   0  0  0  0  0  0
   29.3255   92.4510   21.8746 H   0  0  0  0  0  0
   28.1161   93.9666   24.8231 H   0  0  0  0  0  0
   25.3050   96.0049   25.8541 H   0  0  0  0  0  0
   26.9047   95.3848   26.2489 H   0  0  0  0  0  0
   26.3779   95.5081   24.5506 H   0  0  0  0  0  0
   23.8987   91.1453   30.2783 H   0  0  0  0  0  0
   23.4822   92.1507   33.6868 H   0  0  0  0  0  0
   23.4696   90.8645   32.5490 H   0  0  0  0  0  0
  1  2  1  0  0  0
  1 31  1  0  0  0
  1 32  1  0  0  0
  1 33  1  0  0  0
  2  3  1  0  0  0
  2 34  1  0  0  0
  2 35  1  0  0  0
  3  4  1  0  0  0
  4 28  1  0  0  0
  4  5  2  0  0  0
  5  6  1  0  0  0
  6  7  1  0  0  0
  6 25  2  0  0  0
  7  8  1  0  0  0
  7 36  1  0  0  0
  8  9  2  0  0  0
  8 10  1  0  0  0
 10 11  1  0  0  0
 10 37  1  0  0  0
 10 38  1  0  0  0
 11 22  1  0  0  0
 11 12  2  0  0  0
 12 13  1  0  0  0
 12 39  1  0  0  0
 13 14  1  0  0  0
 13 16  2  0  0  0
 14 15  1  0  0  0
 15 40  1  0  0  0
 15 41  1  0  0  0
 15 42  1  0  0  0
 16 17  1  0  0  0
 16 21  1  0  0  0
 17 18  1  0  0  0
 17 19  2  0  0  0
 17 20  2  0  0  0
 18 43  1  0  0  0
 18 44  1  0  0  0
 18 45  1  0  0  0
 21 22  2  0  0  0
 21 46  1  0  0  0
 22 23  1  0  0  0
 23 24  1  0  0  0
 24 47  1  0  0  0
 24 48  1  0  0  0
 24 49  1  0  0  0
 25 26  1  0  0  0
 25 50  1  0  0  0
 26 27  1  0  0  0
 26 28  2  0  0  0
 27 51  1  0  0  0
 27 52  1  0  0  0
 28 29  1  0  0  0
 29 30  3  0  0  0
M  END
> <Tot Q>
0

> <Source File Index>
1

> <i_f3d_flags>
0

> <subgroup collapsed>
0

> <Ionization Penalty>
0

> <State Penalty>
0

> <docking score>
-7.91117

> <glide emodel>
-75.5043

> <glide gscore>
-7.91117

> <tautomer probability>
1

> <Source File>
Jnk1_18638-1.sdf

> <Source Path>
C:\Users\yujie\AppData\Roaming\MobaXterm\slash\tmp\dragdrop

> <entry id>
20091

> <job name>
glide-dock_SP_FEP_Jnk1

> <subgroup title>
glide-dock_SP_FEP_Jnk1_pv

> <subgroupid>
glide-dock_SP_FEP_Jnk1_pv8

$$$$
