Jnk1_18625-1
                    3D
 Schrodinger Suite 2024-1.
 38 39  0  0  1  0            999 V2000
   25.8918   98.5904   30.5081 C   0  0  0  0  0  0
   25.4778   97.2132   29.9832 C   0  0  0  0  0  0
   24.9465   96.4572   31.0679 O   0  0  0  0  0  0
   24.6693   95.1164   30.8728 C   0  0  0  0  0  0
   24.7933   94.6199   29.6190 N   0  0  0  0  0  0
   24.5449   93.3161   29.3804 C   0  0  0  0  0  0
   24.6688   92.8782   28.0400 N   0  0  0  0  0  0
   24.2683   91.7399   27.4467 C   0  0  0  0  0  0
   23.7726   90.7706   28.0175 O   0  0  0  0  0  0
   24.4191   91.7146   25.9296 C   0  0  0  0  0  0
   25.8849   91.6984   25.5170 C   0  0  0  0  0  0
   26.5337   90.4548   25.3656 C   0  0  0  0  0  0
   27.8858   90.3936   24.9796 C   0  0  0  0  0  0
   28.5996   91.5800   24.7295 C   0  0  0  0  0  0
   27.9569   92.8247   24.8635 C   0  0  0  0  0  0
   26.6059   92.8913   25.2582 C   0  0  0  0  0  0
   25.8689   94.4472   25.4156 Cl  0  0  0  0  0  0
   24.1858   92.4405   30.4308 C   0  0  0  0  0  0
   24.0339   92.9438   31.7317 C   0  0  0  0  0  0
   23.6400   92.0537   32.7295 N   0  0  0  0  0  0
   24.2691   94.3194   31.9680 C   0  0  0  0  0  0
   24.1075   94.9263   33.2857 C   0  0  0  0  0  0
   23.9781   95.4131   34.3286 N   0  0  0  0  0  0
   26.2903   99.2098   29.7052 H   0  0  0  0  0  0
   26.6624   98.4973   31.2729 H   0  0  0  0  0  0
   25.0429   99.1156   30.9460 H   0  0  0  0  0  0
   24.7288   97.3203   29.1967 H   0  0  0  0  0  0
   26.3512   96.7181   29.5550 H   0  0  0  0  0  0
   25.0443   93.5760   27.4146 H   0  0  0  0  0  0
   23.9107   90.8374   25.5270 H   0  0  0  0  0  0
   23.8988   92.5828   25.5294 H   0  0  0  0  0  0
   25.9889   89.5356   25.5287 H   0  0  0  0  0  0
   28.3700   89.4352   24.8641 H   0  0  0  0  0  0
   29.6356   91.5344   24.4270 H   0  0  0  0  0  0
   28.5050   93.7349   24.6670 H   0  0  0  0  0  0
   24.0110   91.3896   30.2677 H   0  0  0  0  0  0
   23.4720   92.3508   33.6828 H   0  0  0  0  0  0
   23.4938   91.0701   32.5374 H   0  0  0  0  0  0
  1  2  1  0  0  0
  1 24  1  0  0  0
  1 25  1  0  0  0
  1 26  1  0  0  0
  2  3  1  0  0  0
  2 27  1  0  0  0
  2 28  1  0  0  0
  3  4  1  0  0  0
  4 21  1  0  0  0
  4  5  2  0  0  0
  5  6  1  0  0  0
  6  7  1  0  0  0
  6 18  2  0  0  0
  7  8  1  0  0  0
  7 29  1  0  0  0
  8  9  2  0  0  0
  8 10  1  0  0  0
 10 11  1  0  0  0
 10 30  1  0  0  0
 10 31  1  0  0  0
 11 16  1  0  0  0
 11 12  2  0  0  0
 12 13  1  0  0  0
 12 32  1  0  0  0
 13 14  2  0  0  0
 13 33  1  0  0  0
 14 15  1  0  0  0
 14 34  1  0  0  0
 15 16  2  0  0  0
 15 35  1  0  0  0
 16 17  1  0  0  0
 18 19  1  0  0  0
 18 36  1  0  0  0
 19 20  1  0  0  0
 19 21  2  0  0  0
 20 37  1  0  0  0
 20 38  1  0  0  0
 21 22  1  0  0  0
 22 23  3  0  0  0
M  END
> <Tot Q>
0

> <Source File Index>
1

> <i_f3d_flags>
0

> <subgroup collapsed>
0

> <Ionization Penalty>
0

> <State Penalty>
0

> <docking score>
-7.65233

> <glide emodel>
-66.4745

> <glide gscore>
-7.65233

> <tautomer probability>
1

> <Source File>
Jnk1_18625-1.sdf

> <Source Path>
C:\Users\yujie\AppData\Roaming\MobaXterm\slash\tmp\dragdrop

> <entry id>
20078

> <job name>
glide-dock_SP_FEP_Jnk1

> <subgroup title>
glide-dock_SP_FEP_Jnk1_pv

> <subgroupid>
glide-dock_SP_FEP_Jnk1_pv1

$$$$
