Jnk1_18635-1
                    3D
 Schrodinger Suite 2024-1.
 44 45  0  0  1  0            999 V2000
   25.8859   98.5931   30.5346 C   0  0  0  0  0  0
   25.4566   97.2315   29.9798 C   0  0  0  0  0  0
   24.9501   96.4457   31.0587 O   0  0  0  0  0  0
   24.6690   95.0996   30.8699 C   0  0  0  0  0  0
   24.7843   94.5928   29.6101 N   0  0  0  0  0  0
   24.5292   93.2827   29.3950 C   0  0  0  0  0  0
   24.6690   92.9194   28.0525 N   0  0  0  0  0  0
   24.5330   91.7226   27.4458 C   0  0  0  0  0  0
   24.2681   90.6643   28.0139 O   0  0  0  0  0  0
   24.6687   91.7338   25.9169 C   0  0  0  0  0  0
   25.9258   92.4453   25.4015 C   0  0  0  0  0  0
   25.8579   93.8181   25.1290 C   0  0  0  0  0  0
   26.9773   94.5154   24.6713 C   0  0  0  0  0  0
   26.8972   96.0037   24.3868 C   0  0  0  0  0  0
   28.1757   93.8325   24.4667 C   0  0  0  0  0  0
   28.2565   92.4667   24.7294 C   0  0  0  0  0  0
   27.1412   91.7649   25.1984 C   0  0  0  0  0  0
   27.2767   90.2755   25.4709 C   0  0  0  0  0  0
   24.1554   92.4229   30.4345 C   0  0  0  0  0  0
   24.0212   92.9391   31.7235 C   0  0  0  0  0  0
   23.6285   92.0533   32.7294 N   0  0  0  0  0  0
   24.2709   94.3064   31.9582 C   0  0  0  0  0  0
   24.1234   94.9133   33.2834 C   0  0  0  0  0  0
   24.0055   95.3962   34.3292 N   0  0  0  0  0  0
   26.2722   99.2348   29.7424 H   0  0  0  0  0  0
   26.6689   98.4796   31.2839 H   0  0  0  0  0  0
   25.0467   99.1088   31.0022 H   0  0  0  0  0  0
   24.6888   97.3583   29.2143 H   0  0  0  0  0  0
   26.3176   96.7465   29.5150 H   0  0  0  0  0  0
   24.9243   93.6930   27.4593 H   0  0  0  0  0  0
   24.6132   90.7177   25.5239 H   0  0  0  0  0  0
   23.7849   92.2355   25.5295 H   0  0  0  0  0  0
   24.9292   94.3494   25.2773 H   0  0  0  0  0  0
   27.3233   96.2218   23.4070 H   0  0  0  0  0  0
   25.8694   96.3675   24.3828 H   0  0  0  0  0  0
   27.4702   96.5621   25.1279 H   0  0  0  0  0  0
   29.0486   94.3601   24.1094 H   0  0  0  0  0  0
   29.1941   91.9548   24.5666 H   0  0  0  0  0  0
   28.3099   89.9321   25.4063 H   0  0  0  0  0  0
   26.9257   90.0547   26.4762 H   0  0  0  0  0  0
   26.6718   89.6998   24.7691 H   0  0  0  0  0  0
   23.9551   91.3776   30.2622 H   0  0  0  0  0  0
   23.4976   92.3893   33.6759 H   0  0  0  0  0  0
   23.4812   91.0771   32.5076 H   0  0  0  0  0  0
  1  2  1  0  0  0
  1 25  1  0  0  0
  1 26  1  0  0  0
  1 27  1  0  0  0
  2  3  1  0  0  0
  2 28  1  0  0  0
  2 29  1  0  0  0
  3  4  1  0  0  0
  4 22  1  0  0  0
  4  5  2  0  0  0
  5  6  1  0  0  0
  6  7  1  0  0  0
  6 19  2  0  0  0
  7  8  1  0  0  0
  7 30  1  0  0  0
  8  9  2  0  0  0
  8 10  1  0  0  0
 10 11  1  0  0  0
 10 31  1  0  0  0
 10 32  1  0  0  0
 11 17  1  0  0  0
 11 12  2  0  0  0
 12 13  1  0  0  0
 12 33  1  0  0  0
 13 14  1  0  0  0
 13 15  2  0  0  0
 14 34  1  0  0  0
 14 35  1  0  0  0
 14 36  1  0  0  0
 15 16  1  0  0  0
 15 37  1  0  0  0
 16 17  2  0  0  0
 16 38  1  0  0  0
 17 18  1  0  0  0
 18 39  1  0  0  0
 18 40  1  0  0  0
 18 41  1  0  0  0
 19 20  1  0  0  0
 19 42  1  0  0  0
 20 21  1  0  0  0
 20 22  2  0  0  0
 21 43  1  0  0  0
 21 44  1  0  0  0
 22 23  1  0  0  0
 23 24  3  0  0  0
M  END
> <Source File Index>
1

> <Ionization Penalty>
0

> <Source File Index>
15

> <State Penalty>
0

> <Tot Q>
0

> <entry id>
16240

> <i_f3d_flags>
0

> <subgroup collapsed>
0

> <tautomer probability>
1

> <docking score>
-7.51123

> <glide emodel>
-65.0551

> <glide gscore>
-7.51123

> <Source File>
Jnk1_18635-1.sdf

> <Source Path>
C:\Users\yujie\AppData\Roaming\MobaXterm\slash\tmp\dragdrop

> <entry id>
20088

> <Source File>
Jnk1Jnk1_dock_SP_confgen_100_lib.maegz

> <Source Path>
C:\Users\yujie\Desktop\FEPs

> <subgroup title>
Jnk1Jnk1_dock_SP_confgen_100_lib

> <subgroupid>
Jnk1Jnk1_dock_SP_confgen_100_lib

$$$$
