Jnk1_18633-1
                    3D
 Schrodinger Suite 2024-1.
 42 43  0  0  1  0            999 V2000
   26.3161   96.9090   29.1692 C   0  0  0  0  0  0
   24.8792   96.9752   29.7061 C   0  0  0  0  0  0
   24.7132   96.1871   30.8857 O   0  0  0  0  0  0
   24.5667   94.8139   30.7823 C   0  0  0  0  0  0
   24.6700   94.2535   29.5530 N   0  0  0  0  0  0
   24.5078   92.9258   29.3976 C   0  0  0  0  0  0
   24.6690   92.3945   28.0993 N   0  0  0  0  0  0
   24.1870   91.2538   27.5747 C   0  0  0  0  0  0
   23.4726   90.4606   28.1846 O   0  0  0  0  0  0
   24.5132   90.9750   26.1061 C   0  0  0  0  0  0
   25.7299   91.7351   25.5949 C   0  0  0  0  0  0
   25.6133   93.0785   25.1768 C   0  0  0  0  0  0
   26.7405   93.7750   24.7049 C   0  0  0  0  0  0
   27.9986   93.1430   24.6288 C   0  0  0  0  0  0
   29.0470   93.8948   24.1471 O   0  0  0  0  0  0
   30.2606   93.2243   23.8405 C   0  0  0  0  0  0
   28.1116   91.7929   25.0464 C   0  0  0  0  0  0
   26.9855   91.0961   25.5264 C   0  0  0  0  0  0
   24.2414   92.0929   30.5054 C   0  0  0  0  0  0
   24.0930   92.6573   31.7780 C   0  0  0  0  0  0
   23.7628   91.7986   32.8209 N   0  0  0  0  0  0
   24.2688   94.0549   31.9376 C   0  0  0  0  0  0
   24.1332   94.7212   33.2299 C   0  0  0  0  0  0
   24.0257   95.2559   34.2512 N   0  0  0  0  0  0
   26.4325   97.5760   28.3156 H   0  0  0  0  0  0
   26.5897   95.9087   28.8377 H   0  0  0  0  0  0
   27.0353   97.2129   29.9299 H   0  0  0  0  0  0
   24.6477   98.0063   29.9733 H   0  0  0  0  0  0
   24.1548   96.7015   28.9377 H   0  0  0  0  0  0
   25.1791   92.9847   27.4595 H   0  0  0  0  0  0
   24.6648   89.9042   25.9669 H   0  0  0  0  0  0
   23.6364   91.2548   25.5294 H   0  0  0  0  0  0
   24.6557   93.5782   25.2168 H   0  0  0  0  0  0
   26.6364   94.8028   24.3855 H   0  0  0  0  0  0
   30.9576   93.9299   23.3876 H   0  0  0  0  0  0
   30.7397   92.8191   24.7306 H   0  0  0  0  0  0
   30.0970   92.4178   23.1237 H   0  0  0  0  0  0
   29.0546   91.2709   25.0086 H   0  0  0  0  0  0
   27.0902   90.0669   25.8384 H   0  0  0  0  0  0
   24.1425   91.0225   30.4001 H   0  0  0  0  0  0
   23.5700   92.1380   33.7548 H   0  0  0  0  0  0
   23.6597   90.7996   32.6783 H   0  0  0  0  0  0
  1  2  1  0  0  0
  1 25  1  0  0  0
  1 26  1  0  0  0
  1 27  1  0  0  0
  2  3  1  0  0  0
  2 28  1  0  0  0
  2 29  1  0  0  0
  3  4  1  0  0  0
  4 22  1  0  0  0
  4  5  2  0  0  0
  5  6  1  0  0  0
  6  7  1  0  0  0
  6 19  2  0  0  0
  7  8  1  0  0  0
  7 30  1  0  0  0
  8  9  2  0  0  0
  8 10  1  0  0  0
 10 11  1  0  0  0
 10 31  1  0  0  0
 10 32  1  0  0  0
 11 18  1  0  0  0
 11 12  2  0  0  0
 12 13  1  0  0  0
 12 33  1  0  0  0
 13 14  2  0  0  0
 13 34  1  0  0  0
 14 15  1  0  0  0
 14 17  1  0  0  0
 15 16  1  0  0  0
 16 35  1  0  0  0
 16 36  1  0  0  0
 16 37  1  0  0  0
 17 18  2  0  0  0
 17 38  1  0  0  0
 18 39  1  0  0  0
 19 20  1  0  0  0
 19 40  1  0  0  0
 20 21  1  0  0  0
 20 22  2  0  0  0
 21 41  1  0  0  0
 21 42  1  0  0  0
 22 23  1  0  0  0
 23 24  3  0  0  0
M  END
> <Tot Q>
0

> <Source File Index>
1

> <i_f3d_flags>
0

> <subgroup collapsed>
0

> <Ionization Penalty>
0

> <State Penalty>
0

> <docking score>
-8.04228

> <glide emodel>
-65.8793

> <glide gscore>
-8.04228

> <tautomer probability>
1

> <Source File>
Jnk1_18633-1.sdf

> <Source Path>
C:\Users\yujie\AppData\Roaming\MobaXterm\slash\tmp\dragdrop

> <entry id>
20086

> <job name>
glide-dock_SP_FEP_Jnk1

> <subgroup title>
glide-dock_SP_FEP_Jnk1_pv

> <subgroupid>
glide-dock_SP_FEP_Jnk1_pv6

$$$$
