UMP
                    3D
 Schrodinger Suite 2024-1.
 31 32  0  0  1  0            999 V2000
   14.9176   47.1793  -52.7188 N   0  0  0  0  0  0
   14.4288   46.2346  -51.7949 C   0  0  0  0  0  0
   14.4093   46.6002  -50.4576 N   0  0  0  0  0  0
   14.8490   47.8155  -49.9440 C   0  0  0  0  0  0
   15.3846   48.7358  -50.9404 C   0  0  0  0  0  0
   15.3952   48.3974  -52.2521 C   0  0  0  0  0  0
   14.0296   45.1241  -52.1338 O   0  0  0  0  0  0
   14.7476   48.0456  -48.7404 O   0  0  0  0  0  0
   14.8151   46.8493  -54.1953 C   0  0  2  0  0  0
   15.7757   45.7417  -54.5947 C   0  0  0  0  0  0
   17.0090   46.5041  -55.0218 C   0  0  2  0  0  0
   16.4865   47.8815  -55.4750 C   0  0  2  0  0  0
   17.6349   45.7510  -56.0397 O   0  0  0  0  0  0
   15.1517   47.9576  -54.9688 O   0  0  0  0  0  0
   16.4662   48.0989  -56.9996 C   0  0  0  0  0  0
   15.8699   49.3460  -57.2733 O   0  0  0  0  0  0
   15.3019   49.4952  -58.7558 P   0  0  0  0  0  0
   16.4115   49.5212  -59.7619 O   0  0  0  0  0  0
   14.5213   50.7779  -58.7195 O   0  5  0  0  0  0
   14.3218   48.3580  -58.9807 O   0  5  0  0  0  0
   14.0512   45.9249  -49.8014 H   0  0  0  0  0  0
   15.7639   49.6959  -50.6231 H   0  0  0  0  0  0
   15.7931   49.1214  -52.9478 H   0  0  0  0  0  0
   13.7661   46.5974  -54.3503 H   0  0  0  0  0  0
   15.3132   45.2190  -55.4280 H   0  0  0  0  0  0
   15.9679   45.0283  -53.7965 H   0  0  0  0  0  0
   17.6805   46.6316  -54.1701 H   0  0  0  0  0  0
   17.0819   48.6710  -55.0153 H   0  0  0  0  0  0
   18.0998   46.3617  -56.6129 H   0  0  0  0  0  0
   15.9383   47.2820  -57.4880 H   0  0  0  0  0  0
   17.4743   48.1143  -57.4162 H   0  0  0  0  0  0
  1  2  1  0  0  0
  1  6  1  0  0  0
  1  9  1  0  0  0
  2  3  1  0  0  0
  2  7  2  0  0  0
  3  4  1  0  0  0
  3 21  1  0  0  0
  4  5  1  0  0  0
  4  8  2  0  0  0
  5  6  2  0  0  0
  5 22  1  0  0  0
  6 23  1  0  0  0
  9 10  1  0  0  0
  9 14  1  0  0  0
  9 24  1  0  0  0
 10 11  1  0  0  0
 10 25  1  0  0  0
 10 26  1  0  0  0
 11 12  1  0  0  0
 11 13  1  0  0  0
 11 27  1  0  0  0
 12 14  1  0  0  0
 12 15  1  0  0  0
 12 28  1  0  0  0
 13 29  1  0  0  0
 15 16  1  0  0  0
 15 30  1  0  0  0
 15 31  1  0  0  0
 16 17  1  0  0  0
 17 18  2  0  0  0
 17 19  1  0  0  0
 17 20  1  0  0  0
M  CHG  2  19  -1  20  -1
M  END
> <Tot Q>
-2

> <Source File Index>
1

> <stars>
0

> <i_f3d_flags>
0

> <subgroup collapsed>
0

> <prepared>
1

> <Ionization Penalty>
0.1102

> <State Penalty>
0.1092

> <Potential Energy-S-OPLS>
-760.827

> <docking score>
-7.1513

> <glide emodel>
-74.6852

> <glide gscore>
-7.2605

> <tautomer probability>
0.999537

> <Source File>
MT_1THY_N229I_ligand.sdf

> <Source Path>
C:\Users\yujie\Desktop\res\case\P00469\P00469

> <entry id>
26

> <subgroup title>
glide-dock_SP_P00469_MT_N229I_pv

> <subgroupid>
glide-dock_SP_P00469_MT_N229I_pv

$$$$
