UMP
                    3D
 Schrodinger Suite 2024-1.
 31 32  0  0  1  0            999 V2000
   14.8123   46.8099  -52.2917 N   0  0  0  0  0  0
   14.3271   45.7627  -51.4708 C   0  0  0  0  0  0
   14.2762   45.9721  -50.1000 N   0  0  0  0  0  0
   14.6614   47.1509  -49.4656 C   0  0  0  0  0  0
   15.1641   48.1950  -50.3521 C   0  0  0  0  0  0
   15.2117   47.9968  -51.6909 C   0  0  0  0  0  0
   13.9424   44.6868  -51.9136 O   0  0  0  0  0  0
   14.5347   47.2503  -48.2487 O   0  0  0  0  0  0
   14.7691   46.6647  -53.8118 C   0  0  2  0  0  0
   15.6625   45.5409  -54.3032 C   0  0  0  0  0  0
   16.9548   46.2441  -54.6296 C   0  0  2  0  0  0
   16.5132   47.6553  -55.0644 C   0  0  2  0  0  0
   17.5998   45.4458  -55.6024 O   0  0  0  0  0  0
   15.2292   47.8235  -54.4462 O   0  0  0  0  0  0
   16.4163   47.8640  -56.5947 C   0  0  0  0  0  0
   15.9800   49.1800  -56.8914 O   0  0  0  0  0  0
   15.3507   49.3977  -58.3492 P   0  0  0  0  0  0
   16.3880   49.2768  -59.4329 O   0  0  0  0  0  0
   14.6604   50.7416  -58.3078 O   0  5  0  0  0  0
   14.2700   48.3542  -58.5287 O   0  5  0  0  0  0
   13.9365   45.2331  -49.5065 H   0  0  0  0  0  0
   15.4896   49.1364  -49.9341 H   0  0  0  0  0  0
   15.5780   48.8135  -52.2984 H   0  0  0  0  0  0
   13.7152   46.5124  -54.0343 H   0  0  0  0  0  0
   15.1964   45.1186  -55.1924 H   0  0  0  0  0  0
   15.8077   44.7614  -53.5667 H   0  0  0  0  0  0
   17.5686   46.3127  -53.7291 H   0  0  0  0  0  0
   17.1966   48.3997  -54.6563 H   0  0  0  0  0  0
   18.4948   45.7654  -55.7273 H   0  0  0  0  0  0
   15.7674   47.1127  -57.0329 H   0  0  0  0  0  0
   17.3919   47.7350  -57.0653 H   0  0  0  0  0  0
  1  2  1  0  0  0
  1  6  1  0  0  0
  1  9  1  0  0  0
  2  3  1  0  0  0
  2  7  2  0  0  0
  3  4  1  0  0  0
  3 21  1  0  0  0
  4  5  1  0  0  0
  4  8  2  0  0  0
  5  6  2  0  0  0
  5 22  1  0  0  0
  6 23  1  0  0  0
  9 10  1  0  0  0
  9 14  1  0  0  0
  9 24  1  0  0  0
 10 11  1  0  0  0
 10 25  1  0  0  0
 10 26  1  0  0  0
 11 12  1  0  0  0
 11 13  1  0  0  0
 11 27  1  0  0  0
 12 14  1  0  0  0
 12 15  1  0  0  0
 12 28  1  0  0  0
 13 29  1  0  0  0
 15 16  1  0  0  0
 15 30  1  0  0  0
 15 31  1  0  0  0
 16 17  1  0  0  0
 17 18  2  0  0  0
 17 19  1  0  0  0
 17 20  1  0  0  0
M  CHG  2  19  -1  20  -1
M  END
> <Tot Q>
-2

> <Source File Index>
1

> <stars>
0

> <i_f3d_flags>
0

> <subgroup collapsed>
0

> <prepared>
1

> <Ionization Penalty>
0.1102

> <State Penalty>
0.1092

> <Potential Energy-S-OPLS>
-760.827

> <docking score>
-6.86656

> <glide emodel>
-71.9614

> <glide gscore>
-6.97576

> <tautomer probability>
0.999537

> <Source File>
MT_1THY_N229G_ligand.sdf

> <Source Path>
C:\Users\yujie\Desktop\res\case\P00469\P00469

> <entry id>
28

> <subgroup title>
glide-dock_SP_P00469_MT_N229G_pv

> <subgroupid>
glide-dock_SP_P00469_MT_N229G_pv

$$$$
