UMP
                    3D
 Schrodinger Suite 2024-1.
 31 32  0  0  1  0            999 V2000
   15.2146   47.8819  -52.6629 N   0  0  0  0  0  0
   14.6704   46.5857  -52.7869 C   0  0  0  0  0  0
   13.7168   46.2041  -51.8482 N   0  0  0  0  0  0
   13.2387   46.9987  -50.8081 C   0  0  0  0  0  0
   13.8274   48.3317  -50.7427 C   0  0  0  0  0  0
   14.7602   48.7128  -51.6480 C   0  0  0  0  0  0
   14.9936   45.7986  -53.6712 O   0  0  0  0  0  0
   12.3824   46.5570  -50.0466 O   0  0  0  0  0  0
   16.1866   48.3990  -53.7004 C   0  0  1  0  0  0
   17.5086   47.6198  -53.7497 C   0  0  0  0  0  0
   17.6867   47.3216  -55.2337 C   0  0  2  0  0  0
   16.5834   48.1359  -55.9416 C   0  0  2  0  0  0
   17.5824   45.9235  -55.4497 O   0  0  0  0  0  0
   15.5824   48.2939  -54.9472 O   0  0  0  0  0  0
   15.9828   47.4517  -57.1787 C   0  0  0  0  0  0
   14.9149   48.1986  -57.7487 O   0  0  0  0  0  0
   15.2606   49.3655  -58.8274 P   0  0  0  0  0  0
   14.3824   48.9986  -60.0074 O   0  0  0  0  0  0
   16.7402   49.3452  -59.1435 O   0  5  0  0  0  0
   14.7824   50.6476  -58.1820 O   0  5  0  0  0  0
   13.3364   45.2777  -51.9403 H   0  0  0  0  0  0
   13.5109   49.0164  -49.9694 H   0  0  0  0  0  0
   15.1596   49.7133  -51.5629 H   0  0  0  0  0  0
   16.3517   49.4492  -53.4695 H   0  0  0  0  0  0
   17.4719   46.7202  -53.1340 H   0  0  0  0  0  0
   18.3075   48.2563  -53.3684 H   0  0  0  0  0  0
   18.6689   47.6371  -55.5882 H   0  0  0  0  0  0
   16.9657   49.1256  -56.1971 H   0  0  0  0  0  0
   18.4648   45.5714  -55.5059 H   0  0  0  0  0  0
   15.5824   46.4880  -56.8732 H   0  0  0  0  0  0
   16.7557   47.2286  -57.9150 H   0  0  0  0  0  0
  1  2  1  0  0  0
  1  6  1  0  0  0
  1  9  1  0  0  0
  2  3  1  0  0  0
  2  7  2  0  0  0
  3  4  1  0  0  0
  3 21  1  0  0  0
  4  5  1  0  0  0
  4  8  2  0  0  0
  5  6  2  0  0  0
  5 22  1  0  0  0
  6 23  1  0  0  0
  9 10  1  0  0  0
  9 14  1  0  0  0
  9 24  1  0  0  0
 10 11  1  0  0  0
 10 25  1  0  0  0
 10 26  1  0  0  0
 11 12  1  0  0  0
 11 13  1  0  0  0
 11 27  1  0  0  0
 12 14  1  0  0  0
 12 15  1  0  0  0
 12 28  1  0  0  0
 13 29  1  0  0  0
 15 16  1  0  0  0
 15 30  1  0  0  0
 15 31  1  0  0  0
 16 17  1  0  0  0
 17 18  2  0  0  0
 17 19  1  0  0  0
 17 20  1  0  0  0
M  CHG  2  19  -1  20  -1
M  END
> <i_epik_Tot_Q>
-2

> <i_epik_Tot_abs_Q>
2

> <i_f3d_flags>
0

> <i_i_glide_confnum>
73

> <i_i_glide_lignum>
4

> <i_i_glide_posenum>
282

> <i_i_glide_rotatable_bonds>
5

> <i_lp_mmshare_version>
65135

> <i_m_Source_File_Index>
1

> <i_m_source_file_index>
1

> <i_m_stars>
0

> <b_lp_Chiralities_Consistent>
1

> <b_m_subgroup_collapsed>
0

> <b_ppw_created_disulfur>
1

> <b_ppw_prepared>
1

> <r_epik_Charging_Adjusted_Penalty>
0.219387

> <r_epik_Ionization_Penalty>
0.1102

> <r_epik_Ionization_Penalty_Charging>
0.1102

> <r_epik_Ionization_Penalty_Neutral>
0

> <r_epik_State_Penalty>
0.1092

> <r_i_Bend_Energy-S-OPLS>
753.877

> <r_i_Dihedral_Energy-S-OPLS>
780.941

> <r_i_El-14_Energy-S-OPLS>
584.283

> <r_i_Electrostatic_Energy-S-OPLS>
-1722.46

> <r_i_LJ-14_Energy-S-OPLS>
1569.01

> <r_i_Max_Derivative-S-OPLS>
3.0871

> <r_i_Potential_Energy-S-OPLS>
-760.827

> <r_i_RMS_Derivative-S-OPLS>
0.120057

> <r_i_Stretch_Energy-S-OPLS>
144.502

> <r_i_Van_der_Waals_Energy-S-OPLS>
-3001.73

> <r_i_docking_score>
-6.34354

> <r_i_glide_ecoul>
-19.5002

> <r_i_glide_eff_state_penalty>
0.1092

> <r_i_glide_einternal>
7.70389

> <r_i_glide_emodel>
-67.3748

> <r_i_glide_energy>
-37.2996

> <r_i_glide_erotb>
0.591054

> <r_i_glide_esite>
-0.096514

> <r_i_glide_evdw>
-17.7994

> <r_i_glide_gscore>
-6.45274

> <r_i_glide_hbond>
-0.760918

> <r_i_glide_ligand_efficiency>
-0.317177

> <r_i_glide_ligand_efficiency_ln>
-1.58758

> <r_i_glide_ligand_efficiency_sa>
-0.860951

> <r_i_glide_lipo>
-0.413358

> <r_i_glide_metal>
0

> <r_i_glide_rewards>
-1.958

> <r_i_target_temperature>
298

> <r_lp_Energy>
12.5803

> <r_lp_tautomer_probability>
0.999537

> <r_ppw_preprocess_pH>
7.4

> <s_epik_Chemistry_Notes>
This compound contains an acetal/aminal-like group ( X-CH(R)-Y where X, Y are N, S, or O) that may be acid/base labile, releasing an aldehyde.

> <s_epik_cmdline>
J2VwaWtfcHl0aG9uJywgJy1waCcsICc3LjAnLCAnLXRuJywgJzgnLCAnLW1hJywgJzUwMCcsICctaW1hZScsICc8aW5maWxlLm1hZT4nLCAnLW9tYWUnLCAnPG91dGZpbGUubWFlPic=

> <s_epik_input>
W2NIXTFbY0hdYyg9TylbbkhdYyg9TyluMVtDQEBIXTJbQ0gyXVtDQEhdKFtPSF0pW0NASF0oTzIpW0NIMl1PUCg9TykoW09IXSlbT0hd

> <s_i_glide_gridfile>
glide-grid_P00469_MT_N229T

> <s_lp_Force_Field>
S-OPLS

> <s_lp_Variant>
UMP-4

> <s_m_Source_File>
glide-dock_SP_P00469_MT_N229T_pv.maegz

> <s_m_Source_Path>
D:\project\glide-dock_SP_P00469_MT_N229T

> <s_m_entry_id>
20076

> <s_m_entry_name>
Structure19562

> <s_m_job_name>
glide-dock_SP_P00469_MT_N229T

> <s_m_source_file>
ligprep_UMP.maegz

> <s_m_subgroup_title>
glide-dock_SP_P00469_MT_N229T_pv

> <s_m_subgroupid>
glide-dock_SP_P00469_MT_N229T_pv

> <s_pdb_PDB_format_version>
3.0

> <s_ppw_het_states>
eJztlF1qhDAYRbciebaSxMSfbmUYRKaZqZBqiU6hiHvvZ1J71cdSGCi+yMkxMcnl4siqD+P6pmsr9hxlWqQ6jsjV9m5mMzJBz9PILq+1u5l+HpykLnkc8XMczSiAEpgCFVADM2AOLIDlghnnQAGUwBSogBqYAXNgAfS7EbPOvVAgq3uGK4rvUwWh96KAEF7IvaATSMQUEhIIK+S0FTmWqGVbiaBCRmIlfBAC+YXoBFIMAW6FhBDbbyxCQSgvNIT2IoPIvPg5+iKK/Qx/9Dnwd9PWdvikxItEcU0T2ZsZaluFF40v3TiR7i+dMzRo79bSsGmvXdUPbmX6qnPNraF1JK+17Q2t+7/lfVoiLT0f9X1ofXnCtTra+6v2Hv/eB5dXJJrr9I/be56mL6456TY=

> <s_ppw_prepared_with_version>
2024-1

$$$$
