UMP
                    3D
 Schrodinger Suite 2024-1.
 31 32  0  0  1  0            999 V2000
   14.6822   46.5876  -52.5863 N   0  0  0  0  0  0
   14.2973   45.7045  -51.5579 C   0  0  0  0  0  0
   13.9068   46.2752  -50.3480 N   0  0  0  0  0  0
   13.8890   47.6425  -50.0653 C   0  0  0  0  0  0
   14.3640   48.4945  -51.1497 C   0  0  0  0  0  0
   14.7397   47.9517  -52.3314 C   0  0  0  0  0  0
   14.2959   44.4813  -51.6963 O   0  0  0  0  0  0
   13.4885   48.0386  -48.9738 O   0  0  0  0  0  0
   15.0448   46.0204  -53.9351 C   0  0  2  0  0  0
   16.4800   45.4852  -53.9521 C   0  0  0  0  0  0
   17.1781   46.4140  -54.9250 C   0  0  1  0  0  0
   16.0219   46.8621  -55.8164 C   0  0  1  0  0  0
   17.7898   47.5012  -54.2556 O   0  0  0  0  0  0
   14.9424   47.0119  -54.9079 O   0  0  0  0  0  0
   16.2551   48.1192  -56.6591 C   0  0  0  0  0  0
   15.3437   48.0632  -57.7415 O   0  0  0  0  0  0
   15.5011   49.2603  -58.8307 P   0  0  0  0  0  0
   16.9315   49.2480  -59.3206 O   0  0  0  0  0  0
   15.1010   50.5419  -58.1228 O   0  5  0  0  0  0
   14.5002   48.8760  -59.9036 O   0  5  0  0  0  0
   13.6186   45.6544  -49.6080 H   0  0  0  0  0  0
   14.4137   49.5637  -51.0058 H   0  0  0  0  0  0
   15.0964   48.6254  -53.0992 H   0  0  0  0  0  0
   14.2996   45.2631  -54.1585 H   0  0  0  0  0  0
   16.4358   44.4748  -54.3609 H   0  0  0  0  0  0
   16.9300   45.4507  -52.9596 H   0  0  0  0  0  0
   17.9315   45.8900  -55.5068 H   0  0  0  0  0  0
   15.7894   46.0318  -56.4840 H   0  0  0  0  0  0
   18.5841   47.1957  -53.8433 H   0  0  0  0  0  0
   17.2780   48.1164  -57.0425 H   0  0  0  0  0  0
   16.1236   49.0293  -56.0693 H   0  0  0  0  0  0
  1  2  1  0  0  0
  1  6  1  0  0  0
  1  9  1  0  0  0
  2  3  1  0  0  0
  2  7  2  0  0  0
  3  4  1  0  0  0
  3 21  1  0  0  0
  4  5  1  0  0  0
  4  8  2  0  0  0
  5  6  2  0  0  0
  5 22  1  0  0  0
  6 23  1  0  0  0
  9 10  1  0  0  0
  9 14  1  0  0  0
  9 24  1  0  0  0
 10 11  1  0  0  0
 10 25  1  0  0  0
 10 26  1  0  0  0
 11 12  1  0  0  0
 11 13  1  0  0  0
 11 27  1  0  0  0
 12 14  1  0  0  0
 12 15  1  0  0  0
 12 28  1  0  0  0
 13 29  1  0  0  0
 15 16  1  0  0  0
 15 30  1  0  0  0
 15 31  1  0  0  0
 16 17  1  0  0  0
 17 18  2  0  0  0
 17 19  1  0  0  0
 17 20  1  0  0  0
M  CHG  2  19  -1  20  -1
M  END
> <i_epik_Tot_Q>
-2

> <i_epik_Tot_abs_Q>
2

> <i_f3d_flags>
0

> <i_i_glide_confnum>
29

> <i_i_glide_lignum>
5

> <i_i_glide_posenum>
174

> <i_i_glide_rotatable_bonds>
5

> <i_lp_mmshare_version>
65135

> <i_m_Source_File_Index>
1

> <i_m_source_file_index>
1

> <i_m_stars>
0

> <b_lp_Chiralities_Consistent>
1

> <b_m_subgroup_collapsed>
0

> <b_ppw_created_disulfur>
1

> <b_ppw_prepared>
1

> <r_epik_Charging_Adjusted_Penalty>
0.219387

> <r_epik_Ionization_Penalty>
0.1102

> <r_epik_Ionization_Penalty_Charging>
0.1102

> <r_epik_Ionization_Penalty_Neutral>
0

> <r_epik_State_Penalty>
0.1092

> <r_i_Bend_Energy-S-OPLS>
753.877

> <r_i_Dihedral_Energy-S-OPLS>
780.941

> <r_i_El-14_Energy-S-OPLS>
584.283

> <r_i_Electrostatic_Energy-S-OPLS>
-1722.46

> <r_i_LJ-14_Energy-S-OPLS>
1569.01

> <r_i_Max_Derivative-S-OPLS>
3.0871

> <r_i_Potential_Energy-S-OPLS>
-760.827

> <r_i_RMS_Derivative-S-OPLS>
0.120057

> <r_i_Stretch_Energy-S-OPLS>
144.502

> <r_i_Van_der_Waals_Energy-S-OPLS>
-3001.73

> <r_i_docking_score>
-7.06968

> <r_i_glide_ecoul>
-16.6992

> <r_i_glide_eff_state_penalty>
0.1092

> <r_i_glide_einternal>
12.671

> <r_i_glide_emodel>
-71.6378

> <r_i_glide_energy>
-40.914

> <r_i_glide_erotb>
0.591054

> <r_i_glide_esite>
-0.0768617

> <r_i_glide_evdw>
-24.2148

> <r_i_glide_gscore>
-7.17888

> <r_i_glide_hbond>
-1.0381

> <r_i_glide_ligand_efficiency>
-0.353484

> <r_i_glide_ligand_efficiency_ln>
-1.76931

> <r_i_glide_ligand_efficiency_sa>
-0.959503

> <r_i_glide_lipo>
-0.690276

> <r_i_glide_metal>
0

> <r_i_glide_rewards>
-2.24907

> <r_i_target_temperature>
298

> <r_lp_Energy>
12.5633

> <r_lp_tautomer_probability>
0.999537

> <r_ppw_preprocess_pH>
7.4

> <s_epik_Chemistry_Notes>
This compound contains an acetal/aminal-like group ( X-CH(R)-Y where X, Y are N, S, or O) that may be acid/base labile, releasing an aldehyde.

> <s_epik_cmdline>
J2VwaWtfcHl0aG9uJywgJy1waCcsICc3LjAnLCAnLXRuJywgJzgnLCAnLW1hJywgJzUwMCcsICctaW1hZScsICc8aW5maWxlLm1hZT4nLCAnLW9tYWUnLCAnPG91dGZpbGUubWFlPic=

> <s_epik_input>
W2NIXTFbY0hdYyg9TylbbkhdYyg9TyluMVtDQEBIXTJbQ0gyXVtDQEhdKFtPSF0pW0NASF0oTzIpW0NIMl1PUCg9TykoW09IXSlbT0hd

> <s_i_glide_gridfile>
glide-grid_P00469_MT_N229L

> <s_lp_Force_Field>
S-OPLS

> <s_lp_Variant>
UMP-5

> <s_m_Source_File>
glide-dock_SP_P00469_MT_N229L_pv.maegz

> <s_m_Source_Path>
D:\project\glide-dock_SP_P00469_MT_N229L

> <s_m_entry_id>
20032

> <s_m_entry_name>
Structure19562

> <s_m_job_name>
glide-dock_SP_P00469_MT_N229L

> <s_m_source_file>
ligprep_UMP.maegz

> <s_m_subgroup_title>
glide-dock_SP_P00469_MT_N229L_pv

> <s_m_subgroupid>
glide-dock_SP_P00469_MT_N229L_pv

> <s_pdb_PDB_format_version>
3.0

> <s_ppw_het_states>
eJztlF1qhDAYRbciebaSxMSfbmUYRKaZqZBqiU6hiHvvZ1J71cdSGCi+yMkxMcnl4siqD+P6pmsr9hxlWqQ6jsjV9m5mMzJBz9PILq+1u5l+HpykLnkc8XMczSiAEpgCFVADM2AOLIDlghnnQAGUwBSogBqYAXNgAfS7EbPOvVAgq3uGK4rvUwWh96KAEF7IvaATSMQUEhIIK+S0FTmWqGVbiaBCRmIlfBAC+YXoBFIMAW6FhBDbbyxCQSgvNIT2IoPIvPg5+iKK/Qx/9Dnwd9PWdvikxItEcU0T2ZsZaluFF40v3TiR7i+dMzRo79bSsGmvXdUPbmX6qnPNraF1JK+17Q2t+7/lfVoiLT0f9X1ofXnCtTra+6v2Hv/eB5dXJJrr9I/be56mL6456TY=

> <s_ppw_prepared_with_version>
2024-1

$$$$
