Structure20
                    3D
 Schrodinger Suite 2024-1.
 31 32  0  0  1  0            999 V2000
   14.7851   46.8047  -52.3042 N   0  0  0  0  0  0
   14.3240   45.7234  -51.5738 C   0  0  0  0  0  0
   13.6628   46.0711  -50.4237 N   0  0  0  0  0  0
   13.4423   47.3020  -49.8794 C   0  0  0  0  0  0
   13.9875   48.3813  -50.6818 C   0  0  0  0  0  0
   14.6294   48.0876  -51.8299 C   0  0  0  0  0  0
   14.4722   44.5352  -51.8484 O   0  0  0  0  0  0
   12.8621   47.4607  -48.8096 O   0  0  0  0  0  0
   15.5976   46.5616  -53.4868 C   0  0  2  0  0  0
   17.1010   46.4963  -53.2456 C   0  0  0  0  0  0
   17.6080   46.7509  -54.6525 C   0  0  2  0  0  0
   16.6276   47.8146  -55.1716 C   0  0  2  0  0  0
   17.6476   45.5508  -55.4056 O   0  0  0  0  0  0
   15.4202   47.5627  -54.4529 O   0  0  0  0  0  0
   16.3799   47.8148  -56.6903 C   0  0  0  0  0  0
   15.6504   48.9651  -57.0746 O   0  0  0  0  0  0
   15.5177   49.4026  -58.7695 P   0  0  0  0  0  0
   14.5836   48.3540  -59.4029 O   0  0  0  0  0  0
   16.9449   49.3543  -59.3372 O   0  5  0  0  0  0
   14.9123   50.8166  -58.7948 O   0  5  0  0  0  0
   13.3102   45.2940  -49.8839 H   0  0  0  0  0  0
   13.8890   49.4022  -50.3451 H   0  0  0  0  0  0
   15.0703   48.8480  -52.4585 H   0  0  0  0  0  0
   15.2357   45.6325  -53.9395 H   0  0  0  0  0  0
   17.3953   45.5345  -52.8238 H   0  0  0  0  0  0
   17.3996   47.2951  -52.5644 H   0  0  0  0  0  0
   18.6182   47.1618  -54.6204 H   0  0  0  0  0  0
   16.9888   48.8020  -54.8781 H   0  0  0  0  0  0
   18.5668   45.3817  -55.6439 H   0  0  0  0  0  0
   15.8688   46.9074  -57.0081 H   0  0  0  0  0  0
   17.3438   47.8307  -57.2009 H   0  0  0  0  0  0
  1  2  1  0  0  0
  1  6  1  0  0  0
  1  9  1  0  0  0
  2  3  1  0  0  0
  2  7  2  0  0  0
  3  4  1  0  0  0
  3 21  1  0  0  0
  4  5  1  0  0  0
  4  8  2  0  0  0
  5  6  2  0  0  0
  5 22  1  0  0  0
  6 23  1  0  0  0
  9 10  1  0  0  0
  9 14  1  0  0  0
  9 24  1  0  0  0
 10 11  1  0  0  0
 10 25  1  0  0  0
 10 26  1  0  0  0
 11 12  1  0  0  0
 11 13  1  0  0  0
 11 27  1  0  0  0
 12 14  1  0  0  0
 12 15  1  0  0  0
 12 28  1  0  0  0
 13 29  1  0  0  0
 15 16  1  0  0  0
 15 30  1  0  0  0
 15 31  1  0  0  0
 16 17  1  0  0  0
 17 18  2  0  0  0
 17 19  1  0  0  0
 17 20  1  0  0  0
M  CHG  2  19  -1  20  -1
M  END
> <Tot Q>
-2

> <Source File Index>
1

> <stars>
0

> <i_f3d_flags>
0

> <prepared>
1

> <Ionization Penalty>
0.1102

> <State Penalty>
0.1092

> <Potential Energy-S-OPLS>
-1110.69

> <docking score>
-7.55421

> <glide emodel>
-78.2114

> <glide gscore>
-7.66341

> <tautomer probability>
0.999537

> <Source File>
WT_1THY_protein.pdb

> <Source Path>
C:\Users\yujie\Desktop\res\case\P00469

> <entry id>
20

> <PDB TITLE>
WT_1THY_complex - prepared

$$$$
