lig52
                    3D
 Schrodinger Suite 2023-4.
 58 60  0  0  1  0            999 V2000
   13.1970    9.3051  -21.6985 C   0  0  0  0  0  0
   13.1846    7.9674  -21.2249 O   0  0  0  0  0  0
   12.7281    7.8301  -19.9374 C   0  0  0  0  0  0
   13.6650    7.5787  -18.9353 C   0  0  0  0  0  0
   13.2579    7.3896  -17.6190 C   0  0  0  0  0  0
   11.8999    7.4561  -17.2869 C   0  0  0  0  0  0
   11.4669    7.2208  -15.9578 N   0  0  0  0  0  0
   11.9115    5.9440  -15.3354 C   0  0  0  0  0  0
   12.9227    6.0367  -14.1882 C   0  0  0  0  0  0
   12.9460    5.0093  -13.2401 C   0  0  0  0  0  0
   13.8648    5.0389  -12.1956 C   0  0  0  0  0  0
   14.7674    6.0954  -12.1020 C   0  0  0  0  0  0
   14.7428    7.1355  -13.0294 C   0  0  0  0  0  0
   13.8161    7.1099  -14.0687 C   0  0  0  0  0  0
   10.6866    8.1165  -15.2445 C   0  0  0  0  0  0
    9.5519    7.6316  -14.1007 S   0  0  0  0  0  0
   10.9543    9.4328  -15.5273 N   0  0  0  0  0  0
   10.2240   10.6130  -15.0366 C   0  0  0  0  0  0
   10.5181   11.0186  -13.5770 C   0  0  0  0  0  0
    9.9280   12.3902  -13.1829 C   0  0  0  0  0  0
   10.6695   13.4885  -13.7719 N   0  0  0  0  0  0
   11.9478   13.8570  -13.4466 C   0  0  0  0  0  0
   12.3520   14.9057  -14.1011 N   0  0  0  0  0  0
   11.3304   15.2586  -14.8553 C   0  0  0  0  0  0
   10.2520   14.3984  -14.7207 C   0  0  0  0  0  0
    8.8850   14.3968  -15.3643 C   0  0  0  0  0  0
   10.9587    7.7049  -18.2972 C   0  0  0  0  0  0
   11.3585    7.8847  -19.6327 C   0  0  0  0  0  0
   10.4805    8.1077  -20.6784 O   0  0  0  0  0  0
    9.0774    8.1134  -20.4370 C   0  0  0  0  0  0
   13.6541    9.3311  -22.6877 H   0  0  0  0  0  0
   12.1870    9.7050  -21.7899 H   0  0  0  0  0  0
   13.7788    9.9557  -21.0419 H   0  0  0  0  0  0
   14.7133    7.5180  -19.1872 H   0  0  0  0  0  0
   14.0037    7.1805  -16.8687 H   0  0  0  0  0  0
   11.0406    5.3780  -15.0016 H   0  0  0  0  0  0
   12.3601    5.3054  -16.0976 H   0  0  0  0  0  0
   12.2534    4.1829  -13.3150 H   0  0  0  0  0  0
   13.8862    4.2418  -11.4672 H   0  0  0  0  0  0
   15.4862    6.1059  -11.2964 H   0  0  0  0  0  0
   15.4399    7.9579  -12.9420 H   0  0  0  0  0  0
   13.8019    7.9245  -14.7799 H   0  0  0  0  0  0
   11.6520    9.6155  -16.2349 H   0  0  0  0  0  0
    9.1522   10.5141  -15.1939 H   0  0  0  0  0  0
   10.4948   11.4438  -15.6909 H   0  0  0  0  0  0
   11.5923   11.0011  -13.3850 H   0  0  0  0  0  0
   10.0942   10.2770  -12.9010 H   0  0  0  0  0  0
    9.9487   12.5089  -12.1009 H   0  0  0  0  0  0
    8.8849   12.5053  -13.4743 H   0  0  0  0  0  0
   12.4984   13.2990  -12.7023 H   0  0  0  0  0  0
   11.3491   16.1368  -15.4876 H   0  0  0  0  0  0
    8.7854   15.1970  -16.1004 H   0  0  0  0  0  0
    8.0982   14.5542  -14.6281 H   0  0  0  0  0  0
    8.6741   13.4576  -15.8726 H   0  0  0  0  0  0
    9.9139    7.7393  -18.0318 H   0  0  0  0  0  0
    8.5487    8.2815  -21.3761 H   0  0  0  0  0  0
    8.7451    7.1521  -20.0427 H   0  0  0  0  0  0
    8.7876    8.9052  -19.7469 H   0  0  0  0  0  0
  1  2  1  0  0  0
  1 31  1  0  0  0
  1 32  1  0  0  0
  1 33  1  0  0  0
  2  3  1  0  0  0
  3 28  1  0  0  0
  3  4  2  0  0  0
  4  5  1  0  0  0
  4 34  1  0  0  0
  5  6  2  0  0  0
  5 35  1  0  0  0
  6  7  1  0  0  0
  6 27  1  0  0  0
  7  8  1  0  0  0
  7 15  1  0  0  0
  8  9  1  0  0  0
  8 36  1  0  0  0
  8 37  1  0  0  0
  9 14  1  0  0  0
  9 10  2  0  0  0
 10 11  1  0  0  0
 10 38  1  0  0  0
 11 12  2  0  0  0
 11 39  1  0  0  0
 12 13  1  0  0  0
 12 40  1  0  0  0
 13 14  2  0  0  0
 13 41  1  0  0  0
 14 42  1  0  0  0
 15 16  2  0  0  0
 15 17  1  0  0  0
 17 18  1  0  0  0
 17 43  1  0  0  0
 18 19  1  0  0  0
 18 44  1  0  0  0
 18 45  1  0  0  0
 19 20  1  0  0  0
 19 46  1  0  0  0
 19 47  1  0  0  0
 20 21  1  0  0  0
 20 48  1  0  0  0
 20 49  1  0  0  0
 21 25  1  0  0  0
 21 22  1  0  0  0
 22 23  2  0  0  0
 22 50  1  0  0  0
 23 24  1  0  0  0
 24 25  2  0  0  0
 24 51  1  0  0  0
 25 26  1  0  0  0
 26 52  1  0  0  0
 26 53  1  0  0  0
 26 54  1  0  0  0
 27 28  2  0  0  0
 27 55  1  0  0  0
 28 29  1  0  0  0
 29 30  1  0  0  0
 30 56  1  0  0  0
 30 57  1  0  0  0
 30 58  1  0  0  0
M  END
> <i_epik_Tot_Q>
0

> <i_epik_Tot_abs_Q>
0

> <i_i_glide_confnum>
130

> <i_i_glide_lignum>
127

> <i_i_glide_posenum>
398

> <i_i_glide_rotatable_bonds>
11

> <i_lp_mmshare_version>
51139

> <i_m_source_file_index>
53

> <i_f3d_flags>
0

> <b_lp_Chiralities_Consistent>
1

> <r_epik_Charging_Adjusted_Penalty>
0.988678

> <r_epik_Ionization_Penalty>
0.4915

> <r_epik_Ionization_Penalty_Charging>
0.4915

> <r_epik_Ionization_Penalty_Neutral>
0

> <r_epik_State_Penalty>
0.4972

> <r_i_docking_score>
-4.23289

> <r_i_glide_ecoul>
-5.3488

> <r_i_glide_eff_state_penalty>
0.497221

> <r_i_glide_einternal>
10.8672

> <r_i_glide_emodel>
-51.0778

> <r_i_glide_energy>
-44.4117

> <r_i_glide_erotb>
0.990089

> <r_i_glide_esite>
-0.182666

> <r_i_glide_evdw>
-39.0629

> <r_i_glide_gscore>
-4.73011

> <r_i_glide_hbond>
-0.0811128

> <r_i_glide_ligand_efficiency>
-0.141096

> <r_i_glide_ligand_efficiency_ln>
-0.961758

> <r_i_glide_ligand_efficiency_sa>
-0.438419

> <r_i_glide_lipo>
-0.760771

> <r_i_glide_metal>
-2.0737

> <r_i_glide_rewards>
0.13352

> <r_lp_Energy>
55.3667

> <r_lp_tautomer_probability>
1

> <s_epik_cmdline>
J2VwaWtfcHl0aG9uJywgJy1waHQnLCAnMi4wJywgJy1waCcsICc3LjQnLCAnLXRuJywgJzgnLCAnLW1hJywgJzIwMCcsICctaW1hZScsICc8aW5maWxlLm1hZT4nLCAnLW9tYWUnLCAnPG91dGZpbGUubWFlPic=

> <s_epik_input>
W2NIXTFbY0hdW2NIXVtjSF1bY0hdYzFbQ0gyXU4oYyhbY0hdYzJPW0NIM10pW2NIXVtjSF1jMk9bQ0gzXSlDKD1TKVtOSF1bQ0gyXVtDSDJdW0NIMl1uM1tjSF1uW2NIXWMzW0NIM10=

> <s_i_glide_gridfile>
Sries53165-001-gridgen

> <s_lp_Force_Field>
OPLS3e

> <s_lp_Variant>
lig52-2

> <s_m_source_file>
/home/user-home/yujie/0_PBCNetv2/data/0_0_high_sim/0_noncov/Sries53165/ligprep_input.csv

$$$$
