lig54
                    3D
 Schrodinger Suite 2023-4.
 48 49  0  0  1  0            999 V2000
   12.0662    6.8400  -22.1930 C   0  0  0  0  0  0
   11.9158    8.0679  -21.4935 O   0  0  0  0  0  0
   11.5389    7.9287  -20.1804 C   0  0  0  0  0  0
   12.4976    8.1055  -19.1833 C   0  0  0  0  0  0
   12.1468    7.9952  -17.8381 C   0  0  0  0  0  0
   10.8241    7.7008  -17.4580 C   0  0  0  0  0  0
   10.4395    7.6191  -16.0863 N   0  0  0  0  0  0
    9.1538    7.0120  -15.7052 C   0  0  0  0  0  0
   11.1215    8.2111  -15.0589 C   0  0  0  0  0  0
   12.1037    7.2988  -14.0492 S   0  0  0  0  0  0
   10.9259    9.5628  -14.9880 N   0  0  0  0  0  0
   11.6622   10.4709  -14.1045 C   0  0  0  0  0  0
   10.8431   10.9985  -12.9117 C   0  0  0  0  0  0
    9.9521   12.2209  -13.2408 C   0  0  0  0  0  0
   10.7110   13.3795  -13.7241 N   0  0  0  0  0  0
   11.9520   13.8045  -13.3053 C   0  0  0  0  0  0
   12.3516   14.9055  -13.8832 N   0  0  0  0  0  0
   11.3418   15.2604  -14.6539 C   0  0  0  0  0  0
   10.2913   14.3528  -14.6069 C   0  0  0  0  0  0
    8.9419   14.3465  -15.2904 C   0  0  0  0  0  0
    9.8710    7.5178  -18.4739 C   0  0  0  0  0  0
   10.2130    7.6421  -19.8212 C   0  0  0  0  0  0
    9.2376    7.4348  -20.7652 O   0  0  0  0  0  0
    8.7505    8.6128  -21.3943 C   0  0  0  0  0  0
   12.4007    7.0418  -23.2105 H   0  0  0  0  0  0
   12.8118    6.1989  -21.7193 H   0  0  0  0  0  0
   11.1250    6.2919  -22.2577 H   0  0  0  0  0  0
   13.5162    8.3381  -19.4567 H   0  0  0  0  0  0
   12.9174    8.1451  -17.0960 H   0  0  0  0  0  0
    8.9825    6.0893  -16.2598 H   0  0  0  0  0  0
    9.0821    6.7601  -14.6447 H   0  0  0  0  0  0
    8.3522    7.7064  -15.9383 H   0  0  0  0  0  0
   10.2097    9.9698  -15.5717 H   0  0  0  0  0  0
   11.9520   11.3066  -14.7345 H   0  0  0  0  0  0
   12.6126   10.0578  -13.7651 H   0  0  0  0  0  0
   11.5224   11.2598  -12.1009 H   0  0  0  0  0  0
   10.2284   10.1952  -12.5012 H   0  0  0  0  0  0
    9.3902   12.5386  -12.3624 H   0  0  0  0  0  0
    9.2283   11.9461  -14.0089 H   0  0  0  0  0  0
   12.4926   13.2423  -12.5588 H   0  0  0  0  0  0
   11.3411   16.1773  -15.2317 H   0  0  0  0  0  0
    8.7754   15.2580  -15.8664 H   0  0  0  0  0  0
    8.1283   14.2870  -14.5682 H   0  0  0  0  0  0
    8.8326   13.5048  -15.9735 H   0  0  0  0  0  0
    8.8416    7.2946  -18.2408 H   0  0  0  0  0  0
    7.9611    8.3486  -22.0987 H   0  0  0  0  0  0
    8.3211    9.3040  -20.6677 H   0  0  0  0  0  0
    9.5308    9.1336  -21.9510 H   0  0  0  0  0  0
  1  2  1  0  0  0
  1 25  1  0  0  0
  1 26  1  0  0  0
  1 27  1  0  0  0
  2  3  1  0  0  0
  3 22  1  0  0  0
  3  4  2  0  0  0
  4  5  1  0  0  0
  4 28  1  0  0  0
  5  6  2  0  0  0
  5 29  1  0  0  0
  6  7  1  0  0  0
  6 21  1  0  0  0
  7  8  1  0  0  0
  7  9  1  0  0  0
  8 30  1  0  0  0
  8 31  1  0  0  0
  8 32  1  0  0  0
  9 10  2  0  0  0
  9 11  1  0  0  0
 11 12  1  0  0  0
 11 33  1  0  0  0
 12 13  1  0  0  0
 12 34  1  0  0  0
 12 35  1  0  0  0
 13 14  1  0  0  0
 13 36  1  0  0  0
 13 37  1  0  0  0
 14 15  1  0  0  0
 14 38  1  0  0  0
 14 39  1  0  0  0
 15 19  1  0  0  0
 15 16  1  0  0  0
 16 17  2  0  0  0
 16 40  1  0  0  0
 17 18  1  0  0  0
 18 19  2  0  0  0
 18 41  1  0  0  0
 19 20  1  0  0  0
 20 42  1  0  0  0
 20 43  1  0  0  0
 20 44  1  0  0  0
 21 22  2  0  0  0
 21 45  1  0  0  0
 22 23  1  0  0  0
 23 24  1  0  0  0
 24 46  1  0  0  0
 24 47  1  0  0  0
 24 48  1  0  0  0
M  END
> <i_epik_Tot_Q>
0

> <i_epik_Tot_abs_Q>
0

> <i_i_glide_confnum>
139

> <i_i_glide_lignum>
133

> <i_i_glide_posenum>
103

> <i_i_glide_rotatable_bonds>
9

> <i_lp_mmshare_version>
51139

> <i_m_source_file_index>
55

> <i_f3d_flags>
0

> <b_lp_Chiralities_Consistent>
1

> <r_epik_Charging_Adjusted_Penalty>
0.987779

> <r_epik_Ionization_Penalty>
0.491

> <r_epik_Ionization_Penalty_Charging>
0.491

> <r_epik_Ionization_Penalty_Neutral>
0

> <r_epik_State_Penalty>
0.4968

> <r_i_docking_score>
-5.02775

> <r_i_glide_ecoul>
-3.84731

> <r_i_glide_eff_state_penalty>
0.496755

> <r_i_glide_einternal>
24.5553

> <r_i_glide_emodel>
-43.4715

> <r_i_glide_energy>
-40.2011

> <r_i_glide_erotb>
1.09743

> <r_i_glide_esite>
-0.180684

> <r_i_glide_evdw>
-36.3538

> <r_i_glide_gscore>
-5.52451

> <r_i_glide_hbond>
0

> <r_i_glide_ligand_efficiency>
-0.20949

> <r_i_glide_ligand_efficiency_ln>
-1.20337

> <r_i_glide_ligand_efficiency_sa>
-0.604273

> <r_i_glide_lipo>
-0.814335

> <r_i_glide_metal>
-2.20296

> <r_i_glide_rewards>
-1.02917

> <r_lp_Energy>
45.6658

> <r_lp_tautomer_probability>
1

> <s_epik_cmdline>
J2VwaWtfcHl0aG9uJywgJy1waHQnLCAnMi4wJywgJy1waCcsICc3LjQnLCAnLXRuJywgJzgnLCAnLW1hJywgJzIwMCcsICctaW1hZScsICc8aW5maWxlLm1hZT4nLCAnLW9tYWUnLCAnPG91dGZpbGUubWFlPic=

> <s_epik_input>
W0NIM11PYzFbY0hdW2NIXWMoW2NIXWMxT1tDSDNdKU4oW0NIM10pQyg9UylbTkhdW0NIMl1bQ0gyXVtDSDJdbjJbY0hdbltjSF1jMltDSDNd

> <s_i_glide_gridfile>
Sries53165-001-gridgen

> <s_lp_Force_Field>
OPLS3e

> <s_lp_Variant>
lig54-2

> <s_m_source_file>
/home/user-home/yujie/0_PBCNetv2/data/0_0_high_sim/0_noncov/Sries53165/ligprep_input.csv

$$$$
