lig47
                    3D
 Schrodinger Suite 2023-4.
 57 59  0  0  1  0            999 V2000
   15.1746    9.1297  -20.3419 C   0  0  0  0  0  0
   14.7301    7.8233  -19.9976 O   0  0  0  0  0  0
   13.6741    7.8023  -19.1206 C   0  0  0  0  0  0
   13.9118    7.4642  -17.7881 C   0  0  0  0  0  0
   12.8667    7.4586  -16.8647 C   0  0  0  0  0  0
   11.5586    7.7893  -17.2586 C   0  0  0  0  0  0
   10.4960    7.8684  -16.3115 N   0  0  0  0  0  0
    9.0996    7.5985  -16.7325 C   0  0  0  0  0  0
    8.8605    6.2177  -17.3339 C   0  0  0  0  0  0
    8.8365    5.0764  -16.5244 C   0  0  0  0  0  0
    8.5798    3.8281  -17.0948 C   0  0  0  0  0  0
    8.3450    3.7601  -18.4688 C   0  0  0  0  0  0
    8.3536    4.8537  -19.2727 N   0  0  0  0  0  0
    8.6087    6.0586  -18.7011 C   0  0  0  0  0  0
   10.6791    8.3017  -15.0203 C   0  0  0  0  0  0
   10.3815    7.3016  -13.7033 S   0  0  0  0  0  0
   11.1352    9.5900  -14.9401 N   0  0  0  0  0  0
   11.6960   10.2130  -13.7351 C   0  0  0  0  0  0
   10.6783   10.9844  -12.8779 C   0  0  0  0  0  0
    9.9402   12.1629  -13.5579 C   0  0  0  0  0  0
   10.7631   13.3294  -13.8820 N   0  0  0  0  0  0
   11.9447   13.7320  -13.3025 C   0  0  0  0  0  0
   12.3519   14.9052  -13.7103 N   0  0  0  0  0  0
   11.4304   15.3047  -14.5621 C   0  0  0  0  0  0
   10.4093   14.3776  -14.7066 C   0  0  0  0  0  0
    9.1232   14.4276  -15.5003 C   0  0  0  0  0  0
   11.3294    8.0998  -18.6076 C   0  0  0  0  0  0
   12.3681    8.0992  -19.5378 C   0  0  0  0  0  0
   12.0849    8.4388  -20.8379 O   0  0  0  0  0  0
   12.0430    7.3362  -21.7328 C   0  0  0  0  0  0
   16.0539    9.0567  -20.9817 H   0  0  0  0  0  0
   14.4132    9.6886  -20.8881 H   0  0  0  0  0  0
   15.4552    9.7017  -19.4562 H   0  0  0  0  0  0
   14.9140    7.2197  -17.4691 H   0  0  0  0  0  0
   13.0831    7.2062  -15.8367 H   0  0  0  0  0  0
    8.4001    7.7039  -15.9014 H   0  0  0  0  0  0
    8.7917    8.3616  -17.4469 H   0  0  0  0  0  0
    9.0114    5.1525  -15.4617 H   0  0  0  0  0  0
    8.5617    2.9375  -16.4843 H   0  0  0  0  0  0
    8.1462    2.8128  -18.9485 H   0  0  0  0  0  0
    8.6018    6.9068  -19.3713 H   0  0  0  0  0  0
   11.0840   10.1615  -15.7711 H   0  0  0  0  0  0
   12.4436   10.9060  -14.1001 H   0  0  0  0  0  0
   12.2546    9.4966  -13.1298 H   0  0  0  0  0  0
   11.1755   11.3376  -11.9768 H   0  0  0  0  0  0
    9.9362   10.2763  -12.5084 H   0  0  0  0  0  0
    9.1521   12.5255  -12.8994 H   0  0  0  0  0  0
    9.4569   11.8200  -14.4731 H   0  0  0  0  0  0
   12.4170   13.1191  -12.5500 H   0  0  0  0  0  0
   11.4557   16.2758  -15.0429 H   0  0  0  0  0  0
    9.1009   15.2810  -16.1792 H   0  0  0  0  0  0
    8.2566   14.5313  -14.8473 H   0  0  0  0  0  0
    8.9725   13.5317  -16.1006 H   0  0  0  0  0  0
   10.3499    8.3870  -18.9557 H   0  0  0  0  0  0
   11.7696    7.6886  -22.7272 H   0  0  0  0  0  0
   13.0119    6.8401  -21.8118 H   0  0  0  0  0  0
   11.2972    6.6006  -21.4246 H   0  0  0  0  0  0
  1  2  1  0  0  0
  1 31  1  0  0  0
  1 32  1  0  0  0
  1 33  1  0  0  0
  2  3  1  0  0  0
  3 28  1  0  0  0
  3  4  2  0  0  0
  4  5  1  0  0  0
  4 34  1  0  0  0
  5  6  2  0  0  0
  5 35  1  0  0  0
  6  7  1  0  0  0
  6 27  1  0  0  0
  7  8  1  0  0  0
  7 15  1  0  0  0
  8  9  1  0  0  0
  8 36  1  0  0  0
  8 37  1  0  0  0
  9 14  1  0  0  0
  9 10  2  0  0  0
 10 11  1  0  0  0
 10 38  1  0  0  0
 11 12  2  0  0  0
 11 39  1  0  0  0
 12 13  1  0  0  0
 12 40  1  0  0  0
 13 14  2  0  0  0
 14 41  1  0  0  0
 15 16  2  0  0  0
 15 17  1  0  0  0
 17 18  1  0  0  0
 17 42  1  0  0  0
 18 19  1  0  0  0
 18 43  1  0  0  0
 18 44  1  0  0  0
 19 20  1  0  0  0
 19 45  1  0  0  0
 19 46  1  0  0  0
 20 21  1  0  0  0
 20 47  1  0  0  0
 20 48  1  0  0  0
 21 25  1  0  0  0
 21 22  1  0  0  0
 22 23  2  0  0  0
 22 49  1  0  0  0
 23 24  1  0  0  0
 24 25  2  0  0  0
 24 50  1  0  0  0
 25 26  1  0  0  0
 26 51  1  0  0  0
 26 52  1  0  0  0
 26 53  1  0  0  0
 27 28  2  0  0  0
 27 54  1  0  0  0
 28 29  1  0  0  0
 29 30  1  0  0  0
 30 55  1  0  0  0
 30 56  1  0  0  0
 30 57  1  0  0  0
M  END
> <i_epik_Tot_Q>
0

> <i_epik_Tot_abs_Q>
0

> <i_i_glide_confnum>
168

> <i_i_glide_lignum>
117

> <i_i_glide_posenum>
115

> <i_i_glide_rotatable_bonds>
11

> <i_lp_mmshare_version>
51139

> <i_m_source_file_index>
48

> <i_f3d_flags>
0

> <b_lp_Chiralities_Consistent>
1

> <r_epik_Charging_Adjusted_Penalty>
0.989654

> <r_epik_Ionization_Penalty>
0.4937

> <r_epik_Ionization_Penalty_Charging>
0.491

> <r_epik_Ionization_Penalty_Neutral>
0.0027

> <r_epik_State_Penalty>
0.4986

> <r_i_docking_score>
-4.93667

> <r_i_glide_ecoul>
-4.50749

> <r_i_glide_eff_state_penalty>
0.49863

> <r_i_glide_einternal>
18.9292

> <r_i_glide_emodel>
-50.4485

> <r_i_glide_energy>
-43.5294

> <r_i_glide_erotb>
0.985933

> <r_i_glide_esite>
-0.176684

> <r_i_glide_evdw>
-39.0219

> <r_i_glide_gscore>
-5.4353

> <r_i_glide_hbond>
-0.0396214

> <r_i_glide_ligand_efficiency>
-0.164556

> <r_i_glide_ligand_efficiency_ln>
-1.12167

> <r_i_glide_ligand_efficiency_sa>
-0.511313

> <r_i_glide_lipo>
-0.903359

> <r_i_glide_metal>
-2.2217

> <r_i_glide_rewards>
-0.452656

> <r_lp_Energy>
58.0069

> <r_lp_tautomer_probability>
1

> <s_epik_cmdline>
J2VwaWtfcHl0aG9uJywgJy1waHQnLCAnMi4wJywgJy1waCcsICc3LjQnLCAnLXRuJywgJzgnLCAnLW1hJywgJzIwMCcsICctaW1hZScsICc8aW5maWxlLm1hZT4nLCAnLW9tYWUnLCAnPG91dGZpbGUubWFlPic=

> <s_epik_input>
W2NIXTFuW2NIXVtjSF1bY0hdYzFbQ0gyXU4oYyhbY0hdYzJPW0NIM10pW2NIXVtjSF1jMk9bQ0gzXSlDKD1TKVtOSF1bQ0gyXVtDSDJdW0NIMl1uM1tjSF1uW2NIXWMzW0NIM10=

> <s_i_glide_gridfile>
Sries53165-001-gridgen

> <s_lp_Force_Field>
OPLS3e

> <s_lp_Variant>
lig47-2

> <s_m_source_file>
/home/user-home/yujie/0_PBCNetv2/data/0_0_high_sim/0_noncov/Sries53165/ligprep_input.csv

$$$$
