/home/yujie/leadopt/data/result/selection/AAK1/lig_(S)-32.sdf:1
                    3D
 Schrodinger Suite 2024-1.
 46 48  0  0  1  0            999 V2000
    2.4311   41.0806  -36.3857 C   0  0  0  0  0  0
    3.4631   40.5990  -35.3497 C   0  0  0  0  0  0
    4.8879   40.7729  -35.9113 C   0  0  0  0  0  0
    3.1589   39.1471  -34.8857 C   0  0  0  0  0  0
    4.0894   38.5895  -33.7753 C   0  0  2  0  0  0
    3.7297   37.1206  -33.5189 N   0  3  0  0  0  0
    4.1047   39.4241  -32.4957 C   0  0  0  0  0  0
    2.9854   39.4112  -31.7243 N   0  0  0  0  0  0
    2.9570   40.1892  -30.6029 C   0  0  0  0  0  0
    1.7753   40.2127  -29.8241 C   0  0  0  0  0  0
    1.6867   41.0073  -28.6810 C   0  0  0  0  0  0
    0.4888   41.0341  -28.0114 O   0  0  0  0  0  0
    0.4303   40.2134  -26.8533 C   0  0  0  0  0  0
    2.7738   41.7947  -28.2710 C   0  0  0  0  0  0
    2.7272   42.6547  -27.0436 C   0  0  0  0  0  0
    1.7305   43.1470  -26.2106 C   0  0  0  0  0  0
    2.2331   43.8014  -25.1831 N   0  0  0  0  0  0
    3.5272   43.7625  -25.3886 C   0  0  0  0  0  0
    3.8990   43.0712  -26.4972 O   0  0  0  0  0  0
    3.9484   41.7843  -29.0257 C   0  0  0  0  0  0
    4.0679   40.9982  -30.2083 C   0  0  0  0  0  0
    5.2308   40.9753  -31.0416 C   0  0  0  0  0  0
    6.4094   41.7890  -30.7742 C   0  0  0  0  0  0
    7.3410   42.4396  -30.5688 N   0  0  0  0  0  0
    5.2315   40.1774  -32.1830 C   0  0  0  0  0  0
    5.1077   38.4859  -34.1575 H   0  0  0  0  0  0
    2.5240   40.5239  -37.3206 H   0  0  0  0  0  0
    2.5714   42.1362  -36.6234 H   0  0  0  0  0  0
    1.4084   40.9655  -36.0242 H   0  0  0  0  0  0
    3.3719   41.2548  -34.4820 H   0  0  0  0  0  0
    5.0653   40.1118  -36.7615 H   0  0  0  0  0  0
    5.0552   41.7953  -36.2548 H   0  0  0  0  0  0
    5.6502   40.5657  -35.1616 H   0  0  0  0  0  0
    2.1275   39.1037  -34.5320 H   0  0  0  0  0  0
    3.1987   38.4897  -35.7556 H   0  0  0  0  0  0
    4.2518   36.7591  -32.7323 H   0  0  0  0  0  0
    2.7397   37.0108  -33.3263 H   0  0  0  0  0  0
    0.9261   39.6180  -30.1297 H   0  0  0  0  0  0
   -0.5369   40.3578  -26.3741 H   0  0  0  0  0  0
    0.5296   39.1616  -27.1096 H   0  0  0  0  0  0
    1.1991   40.4637  -26.1210 H   0  0  0  0  0  0
    0.6689   43.0010  -26.3309 H   0  0  0  0  0  0
    4.3243   44.1747  -24.7870 H   0  0  0  0  0  0
    4.7823   42.3983  -28.7167 H   0  0  0  0  0  0
    6.0959   40.1537  -32.8329 H   0  0  0  0  0  0
    3.9387   36.5494  -34.3233 H   0  0  0  0  0  0
  1  2  1  0  0  0
  1 27  1  0  0  0
  1 28  1  0  0  0
  1 29  1  0  0  0
  2  3  1  0  0  0
  2  4  1  0  0  0
  2 30  1  0  0  0
  3 31  1  0  0  0
  3 32  1  0  0  0
  3 33  1  0  0  0
  4  5  1  0  0  0
  4 34  1  0  0  0
  4 35  1  0  0  0
  5 26  1  0  0  0
  5  6  1  0  0  0
  5  7  1  0  0  0
  6 36  1  0  0  0
  6 37  1  0  0  0
  6 46  1  0  0  0
  7 25  1  0  0  0
  7  8  2  0  0  0
  8  9  1  0  0  0
  9 21  1  0  0  0
  9 10  2  0  0  0
 10 11  1  0  0  0
 10 38  1  0  0  0
 11 12  1  0  0  0
 11 14  2  0  0  0
 12 13  1  0  0  0
 13 39  1  0  0  0
 13 40  1  0  0  0
 13 41  1  0  0  0
 14 15  1  0  0  0
 14 20  1  0  0  0
 15 19  1  0  0  0
 15 16  2  0  0  0
 16 17  1  0  0  0
 16 42  1  0  0  0
 17 18  2  0  0  0
 18 19  1  0  0  0
 18 43  1  0  0  0
 20 21  2  0  0  0
 20 44  1  0  0  0
 21 22  1  0  0  0
 22 23  1  0  0  0
 22 25  2  0  0  0
 23 24  3  0  0  0
 25 45  1  0  0  0
M  CHG  1   6   1
M  END
> <Tot Q>
1

> <Source File Index>
11

> <i_f3d_flags>
0

> <subgroup collapsed>
0

> <Ionization Penalty>
0.0534

> <State Penalty>
0.0458

> <docking score>
-6.45537

> <glide emodel>
-56.4351

> <glide gscore>
-6.50121

> <Source File>
AAK1_lig_(S)-32_ligprepout_dock_SP_confgen_pv.maegz

> <Source Path>
C:\Users\yujie\Desktop\FT_and_sele\Jupyter

> <entry id>
1308

> <subgroup title>
AAK1_lig_(S)-32_ligprepout_dock_SP_confgen_pv

> <subgroupid>
AAK1_lig_(S)-32_ligprepout_dock_SP_confgen_pv

$$$$
