lig_pfkfb3_59
                    3D
 Schrodinger Suite 2024-1.
 49 53  0  0  1  0            999 V2000
   86.6982   45.5358  267.4131 C   0  0  0  0  0  0
   86.8423   47.2069  266.7181 S   0  0  0  0  0  0
   87.4750   48.0563  267.7445 O   0  0  0  0  0  0
   85.5172   47.5837  266.2077 O   0  0  0  0  0  0
   87.9926   47.0073  265.3363 C   0  0  0  0  0  0
   87.4533   46.4734  264.1595 C   0  0  0  0  0  0
   88.2935   46.2260  263.0755 C   0  0  0  0  0  0
   89.6104   46.5122  263.0858 N   0  0  0  0  0  0
   90.1273   47.0216  264.2211 C   0  0  0  0  0  0
   89.3922   47.2826  265.3985 C   0  0  0  0  0  0
   90.0082   47.8358  266.5410 N   0  0  0  0  0  0
   91.3595   48.1127  266.7799 C   0  0  0  0  0  0
   91.7203   49.3568  267.3138 C   0  0  0  0  0  0
   93.0613   49.6319  267.6474 C   0  0  0  0  0  0
   93.4017   50.9165  268.2439 C   0  0  0  0  0  0
   94.3041   51.7913  267.6067 C   0  0  0  0  0  0
   94.6623   53.0032  268.2152 C   0  0  0  0  0  0
   94.0970   53.3512  269.4492 C   0  0  0  0  0  0
   94.4062   54.5737  269.9782 O   0  0  0  0  0  0
   93.9568   54.7814  271.3030 C   0  0  0  0  0  0
   92.6039   54.1362  271.5604 C   0  0  0  0  0  0
   92.6777   52.7468  271.3330 O   0  0  0  0  0  0
   93.2173   52.4571  270.1090 C   0  0  0  0  0  0
   92.8676   51.2521  269.4978 C   0  0  0  0  0  0
   94.0685   48.6590  267.4609 C   0  0  0  0  0  0
   95.3526   48.9193  267.8243 N   0  0  0  0  0  0
   96.2811   47.9697  267.6042 C   0  0  0  0  0  0
   95.9277   46.7239  267.0575 C   0  0  0  0  0  0
   94.6547   46.4420  266.7170 N   0  0  0  0  0  0
   93.7131   47.3965  266.9076 C   0  0  0  0  0  0
   92.3645   47.1527  266.5797 C   0  0  0  0  0  0
   86.0517   45.5720  268.2846 H   0  0  0  0  0  0
   86.2501   44.8961  266.6483 H   0  0  0  0  0  0
   87.6852   45.1629  267.6647 H   0  0  0  0  0  0
   86.3993   46.2250  264.1177 H   0  0  0  0  0  0
   87.8985   45.7976  262.1671 H   0  0  0  0  0  0
   91.1842   47.2327  264.1707 H   0  0  0  0  0  0
   89.3343   48.2582  267.1836 H   0  0  0  0  0  0
   90.9643   50.1107  267.4813 H   0  0  0  0  0  0
   94.7239   51.5278  266.6468 H   0  0  0  0  0  0
   95.3485   53.6767  267.7238 H   0  0  0  0  0  0
   94.6941   54.3934  271.9925 H   0  0  0  0  0  0
   93.8690   55.8535  271.4325 H   0  0  0  0  0  0
   92.2345   54.3430  272.5654 H   0  0  0  0  0  0
   91.9172   54.5392  270.8319 H   0  0  0  0  0  0
   92.1805   50.5905  270.0009 H   0  0  0  0  0  0
   97.3028   48.2164  267.8547 H   0  0  0  0  0  0
   96.6633   45.9559  266.8714 H   0  0  0  0  0  0
   92.1084   46.1900  266.2019 H   0  0  0  0  0  0
  1  2  1  0  0  0
  1 32  1  0  0  0
  1 33  1  0  0  0
  1 34  1  0  0  0
  2  3  2  0  0  0
  2  4  2  0  0  0
  2  5  1  0  0  0
  5 10  1  0  0  0
  5  6  2  0  0  0
  6  7  1  0  0  0
  6 35  1  0  0  0
  7  8  2  0  0  0
  7 36  1  0  0  0
  8  9  1  0  0  0
  9 10  2  0  0  0
  9 37  1  0  0  0
 10 11  1  0  0  0
 11 12  1  0  0  0
 11 38  1  0  0  0
 12 31  1  0  0  0
 12 13  2  0  0  0
 13 14  1  0  0  0
 13 39  1  0  0  0
 14 15  1  0  0  0
 14 25  2  0  0  0
 15 24  1  0  0  0
 15 16  2  0  0  0
 16 17  1  0  0  0
 16 40  1  0  0  0
 17 18  2  0  0  0
 17 41  1  0  0  0
 18 23  1  0  0  0
 18 19  1  0  0  0
 19 20  1  0  0  0
 20 21  1  0  0  0
 20 42  1  0  0  0
 20 43  1  0  0  0
 21 22  1  0  0  0
 21 44  1  0  0  0
 21 45  1  0  0  0
 22 23  1  0  0  0
 23 24  2  0  0  0
 24 46  1  0  0  0
 25 30  1  0  0  0
 25 26  1  0  0  0
 26 27  2  0  0  0
 27 28  1  0  0  0
 27 47  1  0  0  0
 28 29  2  0  0  0
 28 48  1  0  0  0
 29 30  1  0  0  0
 30 31  2  0  0  0
 31 49  1  0  0  0
M  END
> <Tot Q>
0

> <flags>
0

> <Source File Index>
2

> <subgroup collapsed>
0

> <Ionization Penalty>
0.0001

> <State Penalty>
0

> <docking score>
-8.57499

> <glide emodel>
-77.3163

> <glide gscore>
-8.57499

> <tautomer probability>
1

> <Source File>
glide-dock_SP_16_pv.maegz

> <Source Path>
C:\Users\yujie\Documents\Schrodinger\glide-dock_SP_16

> <entry id>
3450

> <job name>
glide-dock_SP_16

> <subgroup title>
glide-dock_SP_16_pv

> <subgroupid>
glide-dock_SP_16_pv

$$$$
