lig_pfkfb3_60
                    3D
 Schrodinger Suite 2020-3.
 54 58  0  0  1  0            999 V2000
   92.8992   51.0506  269.7251 C   0  0  0  0  0  0
   93.5432   50.6060  268.3877 C   0  0  0  0  0  0
   93.3397   51.7125  267.3972 C   0  0  0  0  0  0
   95.0496   50.3064  268.4987 C   0  0  0  0  0  0
   95.2426   48.9131  268.2678 O   0  0  0  0  0  0
   94.0604   48.4155  267.7896 C   0  0  0  0  0  0
   93.8861   47.1104  267.3590 C   0  0  0  0  0  0
   92.6172   46.7257  266.9327 C   0  0  0  0  0  0
   91.5394   47.6185  266.9058 C   0  0  0  0  0  0
   90.1996   47.1413  266.4531 C   0  0  0  0  0  0
   89.2730   46.7275  267.4119 C   0  0  0  0  0  0
   88.0218   46.2075  267.0827 C   0  0  0  0  0  0
   87.1629   45.8078  268.1160 N   0  0  0  0  0  0
   85.8406   45.3698  267.9793 C   0  0  0  0  0  0
   85.5989   43.9956  267.8996 C   0  0  0  0  0  0
   84.3562   43.4589  267.8071 N   0  0  0  0  0  0
   83.3040   44.3131  267.7787 C   0  0  0  0  0  0
   83.4501   45.6984  267.8436 C   0  0  0  0  0  0
   84.7352   46.2440  267.9496 C   0  0  0  0  0  0
   84.8651   48.0388  268.0011 S   0  0  0  0  0  0
   83.8902   48.5208  269.5366 C   0  0  0  0  0  0
   86.2587   48.4346  268.2077 O   0  0  0  0  0  0
   84.1407   48.5555  266.8379 O   0  0  0  0  0  0
   87.6458   46.1126  265.7478 C   0  0  0  0  0  0
   88.5363   46.5078  264.7351 C   0  0  0  0  0  0
   88.1433   46.3761  263.4391 N   0  0  0  0  0  0
   89.0422   46.7003  262.4859 C   0  0  0  0  0  0
   90.3241   47.1439  262.7983 C   0  0  0  0  0  0
   90.7264   47.3125  264.0830 N   0  0  0  0  0  0
   89.8366   47.0067  265.0761 C   0  0  0  0  0  0
   91.7485   48.9313  267.3576 C   0  0  0  0  0  0
   93.0169   49.3198  267.8127 C   0  0  0  0  0  0
   93.0997   52.1005  269.9438 H   0  0  0  0  0  0
   93.2889   50.5126  270.5830 H   0  0  0  0  0  0
   91.8159   50.9266  269.7104 H   0  0  0  0  0  0
   93.7386   52.6548  267.7801 H   0  0  0  0  0  0
   93.8148   51.5100  266.4351 H   0  0  0  0  0  0
   92.2740   51.8205  267.2003 H   0  0  0  0  0  0
   95.5762   50.8180  267.7040 H   0  0  0  0  0  0
   95.5238   50.6708  269.4074 H   0  0  0  0  0  0
   94.6995   46.4004  267.3597 H   0  0  0  0  0  0
   92.4737   45.7126  266.6084 H   0  0  0  0  0  0
   89.5540   46.7871  268.4519 H   0  0  0  0  0  0
   87.2531   46.4317  268.9054 H   0  0  0  0  0  0
   86.4205   43.2952  267.9013 H   0  0  0  0  0  0
   82.3241   43.8678  267.6888 H   0  0  0  0  0  0
   82.5778   46.3353  267.8063 H   0  0  0  0  0  0
   84.1074   49.5595  269.7829 H   0  0  0  0  0  0
   82.8415   48.3923  269.3253 H   0  0  0  0  0  0
   84.1395   47.8676  270.3678 H   0  0  0  0  0  0
   86.6802   45.7125  265.4653 H   0  0  0  0  0  0
   88.7032   46.5934  261.4667 H   0  0  0  0  0  0
   91.0340   47.3870  262.0227 H   0  0  0  0  0  0
   90.9219   49.6272  267.3701 H   0  0  0  0  0  0
  1  2  1  0  0  0
  1 33  1  0  0  0
  1 34  1  0  0  0
  1 35  1  0  0  0
  2 32  1  0  0  0
  2  3  1  0  0  0
  2  4  1  0  0  0
  3 36  1  0  0  0
  3 37  1  0  0  0
  3 38  1  0  0  0
  4  5  1  0  0  0
  4 39  1  0  0  0
  4 40  1  0  0  0
  5  6  1  0  0  0
  6 32  2  0  0  0
  6  7  1  0  0  0
  7  8  2  0  0  0
  7 41  1  0  0  0
  8  9  1  0  0  0
  8 42  1  0  0  0
  9 10  1  0  0  0
  9 31  2  0  0  0
 10 30  1  0  0  0
 10 11  2  0  0  0
 11 12  1  0  0  0
 11 43  1  0  0  0
 12 13  1  0  0  0
 12 24  2  0  0  0
 13 14  1  0  0  0
 13 44  1  0  0  0
 14 19  1  0  0  0
 14 15  2  0  0  0
 15 16  1  0  0  0
 15 45  1  0  0  0
 16 17  2  0  0  0
 17 18  1  0  0  0
 17 46  1  0  0  0
 18 19  2  0  0  0
 18 47  1  0  0  0
 19 20  1  0  0  0
 20 21  1  0  0  0
 20 22  2  0  0  0
 20 23  2  0  0  0
 21 48  1  0  0  0
 21 49  1  0  0  0
 21 50  1  0  0  0
 24 25  1  0  0  0
 24 51  1  0  0  0
 25 30  2  0  0  0
 25 26  1  0  0  0
 26 27  2  0  0  0
 27 28  1  0  0  0
 27 52  1  0  0  0
 28 29  2  0  0  0
 28 53  1  0  0  0
 29 30  1  0  0  0
 31 32  1  0  0  0
 31 54  1  0  0  0
M  END
> <s_m_source_file>
/home/user-home/yujie/0_PBCNetv2/data/FEP/pfkfb3/inp_ligprep.csv

> <i_m_source_file_index>
38

> <i_lp_mmshare_version>
51139

> <i_f3d_flags>
0

> <s_epik_input>
TzFbQ0gyXUMoW0NIM10pKFtDSDNdKWMoYzEyKVtjSF1jKFtjSF1bY0hdMiktYyhjKGMzNCluW2NIXVtjSF1uNClbY0hdYyhbY0hdMylbTkhdYzVbY0hdbltjSF1bY0hdYzVTKD1PKSg9TylbQ0gzXQ==

> <s_epik_cmdline>
J2VwaWtfcHl0aG9uJywgJy1waHQnLCAnMi4wJywgJy1waCcsICc3LjQnLCAnLXRuJywgJzgnLCAnLW1hJywgJzIwMCcsICctaW1hZScsICc8aW5maWxlLm1hZT4nLCAnLW9tYWUnLCAnPG91dGZpbGUubWFlPic=

> <r_lp_tautomer_probability>
1

> <r_epik_Ionization_Penalty>
  0.0000

> <r_epik_Ionization_Penalty_Charging>
  0.0000

> <r_epik_Ionization_Penalty_Neutral>
  0.0000

> <r_epik_State_Penalty>
 -0.0000

> <r_epik_Charging_Adjusted_Penalty>
0

> <i_epik_Tot_Q>
0

> <i_epik_Tot_abs_Q>
0

> <s_lp_Force_Field>
OPLS3e

> <r_lp_Energy>
45.9608

> <b_lp_Chiralities_Consistent>
1

> <s_lp_Variant>
lig_pfkfb3_60-1

> <s_i_glide_gridfile>
pfkfb3-001-gridgen

> <i_i_glide_lignum>
40

> <i_i_glide_rotatable_bonds>
4

> <r_i_docking_score>
-6.02456273762082

> <r_i_glide_ligand_efficiency>
-0.188267585550651

> <r_i_glide_ligand_efficiency_sa>
-0.597712326018727

> <r_i_glide_ligand_efficiency_ln>
-1.34906382033112

> <r_i_glide_gscore>
-6.02456273762082

> <r_i_glide_lipo>
-3.14661053034479

> <r_i_glide_hbond>
0

> <r_i_glide_metal>
-0

> <r_i_glide_rewards>
-0.446589637740905

> <r_i_glide_evdw>
-40.0775108337402

> <r_i_glide_ecoul>
-4.24986839294434

> <r_i_glide_erotb>
0.301186832065071

> <r_i_glide_esite>
-0.0911936009715308

> <r_i_glide_emodel>
-52.7378050426151

> <r_i_glide_energy>
-44.3273792266846

> <r_i_glide_einternal>
16.8353309631348

> <i_i_glide_confnum>
32

> <i_i_glide_posenum>
192

> <r_i_glide_eff_state_penalty>
-0

$$$$
