lig_pfkfb3_65
                    3D
 Schrodinger Suite 2023-4.
 45 49  0  0  1  0            999 V2000
   87.1202   45.5881  267.6302 C   0  0  0  0  0  0
   86.9976   47.1807  266.7311 S   0  0  0  0  0  0
   87.5281   48.2252  267.6205 O   0  0  0  0  0  0
   85.6218   47.3123  266.2249 O   0  0  0  0  0  0
   88.1077   47.0061  265.3158 C   0  0  0  0  0  0
   87.5676   46.5123  264.1118 C   0  0  0  0  0  0
   88.4162   46.3519  263.0067 C   0  0  0  0  0  0
   89.7297   46.6572  263.0327 N   0  0  0  0  0  0
   90.2464   47.1221  264.1902 C   0  0  0  0  0  0
   89.4959   47.3124  265.3763 C   0  0  0  0  0  0
   90.0695   47.8485  266.5398 N   0  0  0  0  0  0
   91.4124   48.1460  266.8099 C   0  0  0  0  0  0
   91.7194   49.3875  267.3878 C   0  0  0  0  0  0
   93.0344   49.7001  267.7885 C   0  0  0  0  0  0
   93.2667   50.9721  268.4880 C   0  0  0  0  0  0
   94.2621   51.8839  268.0769 C   0  0  0  0  0  0
   94.4999   53.0589  268.8087 C   0  0  0  0  0  0
   93.7309   53.3189  269.9561 C   0  0  0  0  0  0
   93.8094   54.6837  271.0479 S   0  0  0  0  0  0
   92.5397   53.9388  272.0117 C   0  0  0  0  0  0
   92.0390   52.7871  271.5604 N   0  0  0  0  0  0
   92.7132   52.4255  270.3988 C   0  0  0  0  0  0
   92.4948   51.2688  269.6302 C   0  0  0  0  0  0
   94.0755   48.7601  267.5848 C   0  0  0  0  0  0
   95.3393   49.0328  267.9996 N   0  0  0  0  0  0
   96.2970   48.1091  267.7982 C   0  0  0  0  0  0
   96.0002   46.8840  267.1777 C   0  0  0  0  0  0
   94.7500   46.5846  266.7748 N   0  0  0  0  0  0
   93.7751   47.5035  266.9802 C   0  0  0  0  0  0
   92.4460   47.2152  266.6071 C   0  0  0  0  0  0
   86.5295   45.6539  268.5424 H   0  0  0  0  0  0
   86.7293   44.7840  267.0070 H   0  0  0  0  0  0
   88.1617   45.3905  267.8792 H   0  0  0  0  0  0
   86.5206   46.2516  264.0450 H   0  0  0  0  0  0
   88.0303   45.9800  262.0687 H   0  0  0  0  0  0
   91.2976   47.3649  264.1508 H   0  0  0  0  0  0
   89.3921   48.2699  267.1703 H   0  0  0  0  0  0
   90.9267   50.0987  267.5705 H   0  0  0  0  0  0
   94.8677   51.6697  267.2063 H   0  0  0  0  0  0
   95.2688   53.7504  268.4986 H   0  0  0  0  0  0
   92.1318   54.3832  272.9086 H   0  0  0  0  0  0
   91.7397   50.5727  269.9608 H   0  0  0  0  0  0
   97.2985   48.3532  268.1234 H   0  0  0  0  0  0
   96.7630   46.1382  267.0076 H   0  0  0  0  0  0
   92.2224   46.2434  266.1948 H   0  0  0  0  0  0
  1  2  1  0  0  0
  1 31  1  0  0  0
  1 32  1  0  0  0
  1 33  1  0  0  0
  2  3  2  0  0  0
  2  4  2  0  0  0
  2  5  1  0  0  0
  5 10  1  0  0  0
  5  6  2  0  0  0
  6  7  1  0  0  0
  6 34  1  0  0  0
  7  8  2  0  0  0
  7 35  1  0  0  0
  8  9  1  0  0  0
  9 10  2  0  0  0
  9 36  1  0  0  0
 10 11  1  0  0  0
 11 12  1  0  0  0
 11 37  1  0  0  0
 12 30  1  0  0  0
 12 13  2  0  0  0
 13 14  1  0  0  0
 13 38  1  0  0  0
 14 15  1  0  0  0
 14 24  2  0  0  0
 15 23  1  0  0  0
 15 16  2  0  0  0
 16 17  1  0  0  0
 16 39  1  0  0  0
 17 18  2  0  0  0
 17 40  1  0  0  0
 18 22  1  0  0  0
 18 19  1  0  0  0
 19 20  1  0  0  0
 20 21  2  0  0  0
 20 41  1  0  0  0
 21 22  1  0  0  0
 22 23  2  0  0  0
 23 42  1  0  0  0
 24 29  1  0  0  0
 24 25  1  0  0  0
 25 26  2  0  0  0
 26 27  1  0  0  0
 26 43  1  0  0  0
 27 28  2  0  0  0
 27 44  1  0  0  0
 28 29  1  0  0  0
 29 30  2  0  0  0
 30 45  1  0  0  0
M  END
> <i_epik_Tot_Q>
0

> <i_epik_Tot_abs_Q>
0

> <i_f3d_flags>
0

> <i_i_glide_confnum>
43

> <i_i_glide_lignum>
15

> <i_i_glide_posenum>
270

> <i_i_glide_rotatable_bonds>
4

> <i_lp_mmshare_version>
65135

> <i_m_Source_File_Index>
15

> <i_m_source_file_index>
15

> <b_lp_Chiralities_Consistent>
1

> <r_canvas_pIC50s>
6.95

> <r_epik_Charging_Adjusted_Penalty>
0

> <r_epik_Ionization_Penalty>
0

> <r_epik_Ionization_Penalty_Charging>
0

> <r_epik_Ionization_Penalty_Neutral>
0

> <r_epik_State_Penalty>
0

> <r_i_docking_score>
-9.29732

> <r_i_glide_ecoul>
-2.33428

> <r_i_glide_eff_state_penalty>
0

> <r_i_glide_einternal>
5.95431

> <r_i_glide_emodel>
-95.5245

> <r_i_glide_energy>
-64.1501

> <r_i_glide_erotb>
0.317796

> <r_i_glide_esite>
-0.0481612

> <r_i_glide_evdw>
-61.8159

> <r_i_glide_gscore>
-9.29732

> <r_i_glide_hbond>
0

> <r_i_glide_ligand_efficiency>
-0.309911

> <r_i_glide_ligand_efficiency_ln>
-2.11245

> <r_i_glide_ligand_efficiency_sa>
-0.962965

> <r_i_glide_lipo>
-5.28237

> <r_i_glide_metal>
-0

> <r_i_glide_rewards>
-0.843651

> <r_lp_Energy>
42.3245

> <r_lp_tautomer_probability>
1

> <s_canvas_SMILES>
CS(=O)(=O)c1ccncc1Nc1cc(-c2ccc3scnc3c2)c2nccnc2c1

> <s_canvas_chembl\_ids>
CHEMBL2331053

> <s_canvas_dirnames>
test_set_fep+

> <s_canvas_pdb\_ids>
6HVI

> <s_canvas_protein\_names>
pfkfb3

> <s_canvas_uniprot\_ids>
Q16875

> <s_epik_cmdline>
J2VwaWtfcHl0aG9uJywgJy1waCcsICc3LjAnLCAnLXRuJywgJzgnLCAnLW1hJywgJzUwMCcsICctaW1hZScsICc8aW5maWxlLm1hZT4nLCAnLW9tYWUnLCAnPG91dGZpbGUubWFlPic=

> <s_epik_input>
W0NIM11TKD1PKSg9TyljMVtjSF1bY0hdbltjSF1jMVtOSF1jKFtjSF1jKGMyMyluW2NIXVtjSF1uMylbY0hdYzItYyhbY0hdW2NIXTQpW2NIXWMoYzQ1KW5bY0hdczU=

> <s_i_glide_gridfile>
pfkfb3-001-gridgen

> <s_lp_Force_Field>
S-OPLS

> <s_lp_Variant>
lig_pfkfb3_65-1

> <s_m_Source_File>
ligprep_pfkfb3-out.maegz

> <s_m_Source_Path>
C:\Users\yujie\Desktop\FEP\ligprep_pfkfb3

> <s_m_entry_id>
10908

> <s_m_entry_name>
label.15

> <s_m_job_name>
ligprep_pfkfb3

> <s_m_source_file>
ligprep_pfkfb3.maegz

$$$$
