lig_pfkfb3_34
                    3D
 Schrodinger Suite 2023-4.
 48 52  0  0  1  0            999 V2000
   91.3474   52.4156  272.2920 C   0  0  0  0  0  0
   92.3623   53.0256  271.4632 N   0  0  0  0  0  0
   92.9800   54.2366  271.7270 C   0  0  0  0  0  0
   93.8962   54.5125  270.7491 C   0  0  0  0  0  0
   93.8482   53.4269  269.8192 C   0  0  0  0  0  0
   94.5395   53.1027  268.6288 C   0  0  0  0  0  0
   94.2679   51.9040  267.9438 C   0  0  0  0  0  0
   93.2990   50.9963  268.4247 C   0  0  0  0  0  0
   93.0429   49.7139  267.7573 C   0  0  0  0  0  0
   91.7281   49.4040  267.3562 C   0  0  0  0  0  0
   91.4248   48.1731  266.7514 C   0  0  0  0  0  0
   90.0948   47.8719  266.4344 N   0  0  0  0  0  0
   89.5733   47.3255  265.2461 C   0  0  0  0  0  0
   90.3356   47.3125  264.0557 C   0  0  0  0  0  0
   89.8795   46.8856  262.8603 N   0  0  0  0  0  0
   88.6105   46.4361  262.8048 C   0  0  0  0  0  0
   87.7590   46.3904  263.9214 C   0  0  0  0  0  0
   88.2394   46.8318  265.1755 C   0  0  0  0  0  0
   87.3222   46.7992  266.3727 C   0  0  0  0  0  0
   86.5539   45.7147  266.4963 N   0  0  0  0  0  0
   87.3121   47.7035  267.2100 O   0  0  0  0  0  0
   92.4585   47.2437  266.5474 C   0  0  0  0  0  0
   93.7821   47.5167  266.9482 C   0  0  0  0  0  0
   94.7519   46.5909  266.7482 N   0  0  0  0  0  0
   95.9981   46.8789  267.1753 C   0  0  0  0  0  0
   96.2943   48.0979  267.8080 C   0  0  0  0  0  0
   95.3396   49.0272  268.0020 N   0  0  0  0  0  0
   94.0802   48.7660  267.5710 C   0  0  0  0  0  0
   92.5933   51.3133  269.5984 C   0  0  0  0  0  0
   92.8742   52.5022  270.2889 C   0  0  0  0  0  0
   91.3395   52.9014  273.2685 H   0  0  0  0  0  0
   90.3743   52.5245  271.8084 H   0  0  0  0  0  0
   91.5686   51.3573  272.4306 H   0  0  0  0  0  0
   92.7183   54.8113  272.6028 H   0  0  0  0  0  0
   94.5390   55.3778  270.6851 H   0  0  0  0  0  0
   95.2920   53.7771  268.2488 H   0  0  0  0  0  0
   94.8233   51.6712  267.0463 H   0  0  0  0  0  0
   90.9383   50.1217  267.5270 H   0  0  0  0  0  0
   89.3880   48.2107  267.0768 H   0  0  0  0  0  0
   91.3397   47.7019  264.0457 H   0  0  0  0  0  0
   88.2597   46.1099  261.8355 H   0  0  0  0  0  0
   86.7471   46.0262  263.8107 H   0  0  0  0  0  0
   86.5746   44.9743  265.7941 H   0  0  0  0  0  0
   85.9209   45.6379  267.2777 H   0  0  0  0  0  0
   92.2388   46.2866  266.1033 H   0  0  0  0  0  0
   96.7586   46.1299  267.0078 H   0  0  0  0  0  0
   97.2918   48.3360  268.1481 H   0  0  0  0  0  0
   91.8551   50.6300  269.9926 H   0  0  0  0  0  0
  1  2  1  0  0  0
  1 31  1  0  0  0
  1 32  1  0  0  0
  1 33  1  0  0  0
  2 30  1  0  0  0
  2  3  1  0  0  0
  3  4  2  0  0  0
  3 34  1  0  0  0
  4  5  1  0  0  0
  4 35  1  0  0  0
  5 30  2  0  0  0
  5  6  1  0  0  0
  6  7  2  0  0  0
  6 36  1  0  0  0
  7  8  1  0  0  0
  7 37  1  0  0  0
  8  9  1  0  0  0
  8 29  2  0  0  0
  9 28  1  0  0  0
  9 10  2  0  0  0
 10 11  1  0  0  0
 10 38  1  0  0  0
 11 12  1  0  0  0
 11 22  2  0  0  0
 12 13  1  0  0  0
 12 39  1  0  0  0
 13 18  1  0  0  0
 13 14  2  0  0  0
 14 15  1  0  0  0
 14 40  1  0  0  0
 15 16  2  0  0  0
 16 17  1  0  0  0
 16 41  1  0  0  0
 17 18  2  0  0  0
 17 42  1  0  0  0
 18 19  1  0  0  0
 19 20  1  0  0  0
 19 21  2  0  0  0
 20 43  1  0  0  0
 20 44  1  0  0  0
 22 23  1  0  0  0
 22 45  1  0  0  0
 23 28  2  0  0  0
 23 24  1  0  0  0
 24 25  2  0  0  0
 25 26  1  0  0  0
 25 46  1  0  0  0
 26 27  2  0  0  0
 26 47  1  0  0  0
 27 28  1  0  0  0
 29 30  1  0  0  0
 29 48  1  0  0  0
M  END
> <i_epik_Tot_Q>
0

> <i_epik_Tot_abs_Q>
0

> <i_f3d_flags>
0

> <i_i_glide_confnum>
56

> <i_i_glide_lignum>
34

> <i_i_glide_posenum>
236

> <i_i_glide_rotatable_bonds>
4

> <i_lp_mmshare_version>
65135

> <i_m_Source_File_Index>
32

> <i_m_source_file_index>
32

> <b_lp_Chiralities_Consistent>
1

> <r_canvas_pIC50s>
7.31

> <r_epik_Charging_Adjusted_Penalty>
0.000931829

> <r_epik_Ionization_Penalty>
0.0009

> <r_epik_Ionization_Penalty_Charging>
0

> <r_epik_Ionization_Penalty_Neutral>
0.0009

> <r_epik_State_Penalty>
0.0009

> <r_i_docking_score>
-10.9121

> <r_i_glide_ecoul>
-6.01115

> <r_i_glide_eff_state_penalty>
0.0009

> <r_i_glide_einternal>
7.02278

> <r_i_glide_emodel>
-107.477

> <r_i_glide_energy>
-66.0125

> <r_i_glide_erotb>
0.376891

> <r_i_glide_esite>
-0.113984

> <r_i_glide_evdw>
-60.0013

> <r_i_glide_gscore>
-10.913

> <r_i_glide_hbond>
-0.165432

> <r_i_glide_ligand_efficiency>
-0.363735

> <r_i_glide_ligand_efficiency_ln>
-2.47934

> <r_i_glide_ligand_efficiency_sa>
-1.13021

> <r_i_glide_lipo>
-5.77017

> <r_i_glide_metal>
-0

> <r_i_glide_rewards>
-1.33853

> <r_lp_Energy>
60.8734

> <r_lp_tautomer_probability>
1

> <s_canvas_SMILES>
Cn1ccc2ccc(-c3cc(Nc4cnccc4C(N)=O)cc4nccnc34)cc21

> <s_canvas_chembl\_ids>
CHEMBL2331053

> <s_canvas_dirnames>
test_set_fep+

> <s_canvas_pdb\_ids>
6HVI

> <s_canvas_protein\_names>
pfkfb3

> <s_canvas_uniprot\_ids>
Q16875

> <s_epik_cmdline>
J2VwaWtfcHl0aG9uJywgJy1waCcsICc3LjAnLCAnLXRuJywgJzgnLCAnLW1hJywgJzUwMCcsICctaW1hZScsICc8aW5maWxlLm1hZT4nLCAnLW9tYWUnLCAnPG91dGZpbGUubWFlPic=

> <s_epik_input>
W2NIXTFbY0hdbihbQ0gzXSljKGMxMilbY0hdYyhbY0hdW2NIXTIpLWMoYyhjMzQpbltjSF1bY0hdbjQpW2NIXWMoW2NIXTMpW05IXWM1W2NIXW5bY0hdW2NIXWM1Qyg9TylbTkgyXQ==

> <s_i_glide_gridfile>
pfkfb3-001-gridgen

> <s_lp_Force_Field>
S-OPLS

> <s_lp_Variant>
lig_pfkfb3_34-1

> <s_m_Source_File>
ligprep_pfkfb3-out.maegz

> <s_m_Source_Path>
C:\Users\yujie\Desktop\FEP\ligprep_pfkfb3

> <s_m_entry_id>
10927

> <s_m_entry_name>
label.32

> <s_m_job_name>
ligprep_pfkfb3

> <s_m_source_file>
ligprep_pfkfb3.maegz

$$$$
