lig_pfkfb3_62
                    3D
 Schrodinger Suite 2024-1.
 44 48  0  0  1  0            999 V2000
   86.7234   45.5942  267.4403 C   0  0  0  0  0  0
   86.8574   47.2707  266.7562 S   0  0  0  0  0  0
   87.4771   48.1237  267.7871 O   0  0  0  0  0  0
   85.5322   47.6331  266.2359 O   0  0  0  0  0  0
   88.0165   47.0811  265.3817 C   0  0  0  0  0  0
   87.4969   46.4954  264.2204 C   0  0  0  0  0  0
   88.3469   46.2466  263.1439 C   0  0  0  0  0  0
   89.6548   46.5743  263.1501 N   0  0  0  0  0  0
   90.1515   47.1337  264.2715 C   0  0  0  0  0  0
   89.4045   47.4102  265.4374 C   0  0  0  0  0  0
   89.9877   48.0374  266.5592 N   0  0  0  0  0  0
   91.3278   48.3267  266.8408 C   0  0  0  0  0  0
   91.6374   49.5487  267.4619 C   0  0  0  0  0  0
   92.9548   49.8590  267.8598 C   0  0  0  0  0  0
   93.2113   51.1358  268.5510 C   0  0  0  0  0  0
   94.1771   52.0398  268.0660 C   0  0  0  0  0  0
   94.4495   53.2456  268.7378 C   0  0  0  0  0  0
   93.7636   53.5434  269.9075 C   0  0  0  0  0  0
   93.8699   54.5937  270.7186 N   0  0  0  0  0  0
   92.9295   54.3332  271.7251 O   0  0  0  0  0  0
   92.2509   53.1216  271.5323 N   0  0  0  0  0  0
   92.7761   52.6392  270.4089 C   0  0  0  0  0  0
   92.5026   51.4609  269.7269 C   0  0  0  0  0  0
   93.9927   48.9180  267.6273 C   0  0  0  0  0  0
   95.2623   49.1877  268.0266 N   0  0  0  0  0  0
   96.2107   48.2517  267.8096 C   0  0  0  0  0  0
   95.9013   47.0301  267.1837 C   0  0  0  0  0  0
   94.6501   46.7491  266.7689 N   0  0  0  0  0  0
   93.6866   47.6738  266.9910 C   0  0  0  0  0  0
   92.3601   47.4034  266.6032 C   0  0  0  0  0  0
   86.0610   45.6181  268.3009 H   0  0  0  0  0  0
   86.2956   44.9538  266.6637 H   0  0  0  0  0  0
   87.7109   45.2343  267.7083 H   0  0  0  0  0  0
   86.4503   46.2148  264.1852 H   0  0  0  0  0  0
   87.9683   45.7822  262.2459 H   0  0  0  0  0  0
   91.1984   47.3857  264.2129 H   0  0  0  0  0  0
   89.2888   48.4285  267.1957 H   0  0  0  0  0  0
   90.8486   50.2621  267.6513 H   0  0  0  0  0  0
   94.7275   51.7935  267.1681 H   0  0  0  0  0  0
   95.1976   53.9212  268.3597 H   0  0  0  0  0  0
   91.7796   50.7761  270.1296 H   0  0  0  0  0  0
   97.2151   48.4825  268.1361 H   0  0  0  0  0  0
   96.6524   46.2758  267.0057 H   0  0  0  0  0  0
   92.1571   46.4470  266.1547 H   0  0  0  0  0  0
  1  2  1  0  0  0
  1 31  1  0  0  0
  1 32  1  0  0  0
  1 33  1  0  0  0
  2  3  2  0  0  0
  2  4  2  0  0  0
  2  5  1  0  0  0
  5 10  1  0  0  0
  5  6  2  0  0  0
  6  7  1  0  0  0
  6 34  1  0  0  0
  7  8  2  0  0  0
  7 35  1  0  0  0
  8  9  1  0  0  0
  9 10  2  0  0  0
  9 36  1  0  0  0
 10 11  1  0  0  0
 11 12  1  0  0  0
 11 37  1  0  0  0
 12 30  1  0  0  0
 12 13  2  0  0  0
 13 14  1  0  0  0
 13 38  1  0  0  0
 14 15  1  0  0  0
 14 24  2  0  0  0
 15 23  2  0  0  0
 15 16  1  0  0  0
 16 17  2  0  0  0
 16 39  1  0  0  0
 17 18  1  0  0  0
 17 40  1  0  0  0
 18 22  1  0  0  0
 18 19  2  0  0  0
 19 20  1  0  0  0
 20 21  1  0  0  0
 21 22  2  0  0  0
 22 23  1  0  0  0
 23 41  1  0  0  0
 24 29  1  0  0  0
 24 25  1  0  0  0
 25 26  2  0  0  0
 26 27  1  0  0  0
 26 42  1  0  0  0
 27 28  2  0  0  0
 27 43  1  0  0  0
 28 29  1  0  0  0
 29 30  2  0  0  0
 30 44  1  0  0  0
M  END
> <Tot Q>
0

> <flags>
0

> <Source File Index>
1

> <subgroup collapsed>
0

> <Ionization Penalty>
0

> <State Penalty>
0

> <docking score>
-8.47291

> <glide emodel>
-87.8748

> <glide gscore>
-8.47291

> <tautomer probability>
1

> <Source File>
glide-dock_SP_16_pv.maegz

> <Source Path>
C:\Users\yujie\Documents\Schrodinger\glide-dock_SP_16

> <entry id>
3453

> <job name>
glide-dock_SP_16

> <subgroup title>
glide-dock_SP_16_pv

> <subgroupid>
glide-dock_SP_16_pv

$$$$
