lig_pfkfb3_37
                    3D
 Schrodinger Suite 2023-4.
 62 67  0  0  1  0            999 V2000
   91.4889   52.1285  272.4684 C   0  0  0  0  0  0
   92.4131   52.8665  271.6384 N   0  0  0  0  0  0
   92.9354   54.1129  271.9357 C   0  0  0  0  0  0
   93.7888   54.5121  270.9430 C   0  0  0  0  0  0
   93.8219   53.4499  269.9804 C   0  0  0  0  0  0
   94.5308   53.2004  268.7805 C   0  0  0  0  0  0
   94.3546   51.9950  268.0689 C   0  0  0  0  0  0
   93.4433   51.0154  268.5193 C   0  0  0  0  0  0
   93.2267   49.7403  267.8150 C   0  0  0  0  0  0
   91.9136   49.4297  267.4082 C   0  0  0  0  0  0
   91.6159   48.1907  266.8283 C   0  0  0  0  0  0
   90.3033   47.8908  266.4733 N   0  0  0  0  0  0
   89.8663   47.3272  265.2656 C   0  0  0  0  0  0
   90.7129   47.3045  264.1356 C   0  0  0  0  0  0
   90.3402   46.8579  262.9190 N   0  0  0  0  0  0
   89.0825   46.3901  262.7908 C   0  0  0  0  0  0
   88.1632   46.3351  263.8499 C   0  0  0  0  0  0
   88.5528   46.8073  265.1225 C   0  0  0  0  0  0
   87.5598   46.7982  266.2526 C   0  0  0  0  0  0
   87.4821   47.7417  267.0429 O   0  0  0  0  0  0
   86.7731   45.7129  266.3044 N   0  0  0  0  0  0
   85.4931   45.5872  266.9923 C   0  0  0  0  0  0
   85.5692   45.6297  268.5317 C   0  0  0  0  0  0
   84.1475   45.5399  269.1260 C   0  0  0  0  0  0
   83.3561   46.5993  268.6081 O   0  0  0  0  0  0
   83.1821   46.5035  267.2009 C   0  0  0  0  0  0
   84.5102   46.6460  266.4787 C   0  0  0  0  0  0
   92.6394   47.2516  266.6350 C   0  0  0  0  0  0
   93.9597   47.5350  267.0098 C   0  0  0  0  0  0
   94.9139   46.6027  266.7946 N   0  0  0  0  0  0
   96.1644   46.8896  267.1926 C   0  0  0  0  0  0
   96.4775   48.1128  267.8082 C   0  0  0  0  0  0
   95.5294   49.0427  268.0389 N   0  0  0  0  0  0
   94.2640   48.7900  267.6234 C   0  0  0  0  0  0
   92.7199   51.2636  269.6991 C   0  0  0  0  0  0
   92.9289   52.4392  270.4304 C   0  0  0  0  0  0
   91.3383   52.6438  273.4174 H   0  0  0  0  0  0
   90.5393   52.0365  271.9444 H   0  0  0  0  0  0
   91.8847   51.1338  272.6690 H   0  0  0  0  0  0
   92.6513   54.6262  272.8437 H   0  0  0  0  0  0
   94.3562   55.4294  270.9006 H   0  0  0  0  0  0
   95.2342   53.9354  268.4159 H   0  0  0  0  0  0
   94.9243   51.8192  267.1671 H   0  0  0  0  0  0
   91.1213   50.1459  267.5707 H   0  0  0  0  0  0
   89.5649   48.2553  267.0663 H   0  0  0  0  0  0
   91.7330   47.6614  264.2076 H   0  0  0  0  0  0
   88.7918   46.0557  261.8084 H   0  0  0  0  0  0
   87.1684   45.9480  263.6730 H   0  0  0  0  0  0
   86.9523   44.9539  265.6466 H   0  0  0  0  0  0
   85.1049   44.6081  266.7061 H   0  0  0  0  0  0
   86.0375   46.5559  268.8604 H   0  0  0  0  0  0
   86.1833   44.8116  268.9068 H   0  0  0  0  0  0
   84.1423   45.6257  270.2120 H   0  0  0  0  0  0
   83.6877   44.5797  268.8900 H   0  0  0  0  0  0
   82.5406   47.3142  266.8812 H   0  0  0  0  0  0
   82.6966   45.5607  266.9373 H   0  0  0  0  0  0
   84.3654   46.5414  265.4029 H   0  0  0  0  0  0
   84.8863   47.6538  266.6510 H   0  0  0  0  0  0
   92.4180   46.2848  266.2079 H   0  0  0  0  0  0
   96.9201   46.1412  267.0075 H   0  0  0  0  0  0
   97.4836   48.3483  268.1253 H   0  0  0  0  0  0
   92.0340   50.5216  270.0769 H   0  0  0  0  0  0
  1  2  1  0  0  0
  1 37  1  0  0  0
  1 38  1  0  0  0
  1 39  1  0  0  0
  2 36  1  0  0  0
  2  3  1  0  0  0
  3  4  2  0  0  0
  3 40  1  0  0  0
  4  5  1  0  0  0
  4 41  1  0  0  0
  5 36  2  0  0  0
  5  6  1  0  0  0
  6  7  2  0  0  0
  6 42  1  0  0  0
  7  8  1  0  0  0
  7 43  1  0  0  0
  8  9  1  0  0  0
  8 35  2  0  0  0
  9 34  1  0  0  0
  9 10  2  0  0  0
 10 11  1  0  0  0
 10 44  1  0  0  0
 11 12  1  0  0  0
 11 28  2  0  0  0
 12 13  1  0  0  0
 12 45  1  0  0  0
 13 18  1  0  0  0
 13 14  2  0  0  0
 14 15  1  0  0  0
 14 46  1  0  0  0
 15 16  2  0  0  0
 16 17  1  0  0  0
 16 47  1  0  0  0
 17 18  2  0  0  0
 17 48  1  0  0  0
 18 19  1  0  0  0
 19 20  2  0  0  0
 19 21  1  0  0  0
 21 22  1  0  0  0
 21 49  1  0  0  0
 22 27  1  0  0  0
 22 23  1  0  0  0
 22 50  1  0  0  0
 23 24  1  0  0  0
 23 51  1  0  0  0
 23 52  1  0  0  0
 24 25  1  0  0  0
 24 53  1  0  0  0
 24 54  1  0  0  0
 25 26  1  0  0  0
 26 27  1  0  0  0
 26 55  1  0  0  0
 26 56  1  0  0  0
 27 57  1  0  0  0
 27 58  1  0  0  0
 28 29  1  0  0  0
 28 59  1  0  0  0
 29 34  2  0  0  0
 29 30  1  0  0  0
 30 31  2  0  0  0
 31 32  1  0  0  0
 31 60  1  0  0  0
 32 33  2  0  0  0
 32 61  1  0  0  0
 33 34  1  0  0  0
 35 36  1  0  0  0
 35 62  1  0  0  0
M  END
> <i_epik_Tot_Q>
0

> <i_epik_Tot_abs_Q>
0

> <i_f3d_flags>
0

> <i_i_glide_confnum>
55

> <i_i_glide_lignum>
7

> <i_i_glide_posenum>
223

> <i_i_glide_rotatable_bonds>
6

> <i_lp_mmshare_version>
65135

> <i_m_Source_File_Index>
7

> <i_m_source_file_index>
7

> <b_lp_Chiralities_Consistent>
1

> <r_canvas_pIC50s>
7.33

> <r_epik_Charging_Adjusted_Penalty>
0.000892186

> <r_epik_Ionization_Penalty>
0.0009

> <r_epik_Ionization_Penalty_Charging>
0

> <r_epik_Ionization_Penalty_Neutral>
0.0009

> <r_epik_State_Penalty>
0.0009

> <r_i_docking_score>
-10.4948

> <r_i_glide_ecoul>
-6.19933

> <r_i_glide_eff_state_penalty>
0.0009

> <r_i_glide_einternal>
7.20498

> <r_i_glide_emodel>
-112.919

> <r_i_glide_energy>
-70.0358

> <r_i_glide_erotb>
0.530955

> <r_i_glide_esite>
-0.109954

> <r_i_glide_evdw>
-63.8365

> <r_i_glide_gscore>
-10.4957

> <r_i_glide_hbond>
-0.16

> <r_i_glide_ligand_efficiency>
-0.291521

> <r_i_glide_ligand_efficiency_ln>
-2.28967

> <r_i_glide_ligand_efficiency_sa>
-0.962581

> <r_i_glide_lipo>
-5.93747

> <r_i_glide_metal>
-0

> <r_i_glide_rewards>
-0.697453

> <r_lp_Energy>
68.4067

> <r_lp_tautomer_probability>
1

> <s_canvas_SMILES>
Cn1ccc2ccc(-c3cc(Nc4cnccc4C(=O)NC4CCOCC4)cc4nccnc34)cc21

> <s_canvas_chembl\_ids>
CHEMBL2331053

> <s_canvas_dirnames>
test_set_fep+

> <s_canvas_pdb\_ids>
6HVI

> <s_canvas_protein\_names>
pfkfb3

> <s_canvas_uniprot\_ids>
Q16875

> <s_epik_cmdline>
J2VwaWtfcHl0aG9uJywgJy1waCcsICc3LjAnLCAnLXRuJywgJzgnLCAnLW1hJywgJzUwMCcsICctaW1hZScsICc8aW5maWxlLm1hZT4nLCAnLW9tYWUnLCAnPG91dGZpbGUubWFlPic=

> <s_epik_input>
W2NIXTFbY0hdbihbQ0gzXSljKGMxMilbY0hdYyhbY0hdW2NIXTIpLWMoYyhjMzQpbltjSF1bY0hdbjQpW2NIXWMoW2NIXTMpW05IXWM1W2NIXW5bY0hdW2NIXWM1Qyg9TylbTkhdW0NIXTZbQ0gyXVtDSDJdT1tDSDJdW0NIMl02

> <s_i_glide_gridfile>
pfkfb3-001-gridgen

> <s_lp_Force_Field>
S-OPLS

> <s_lp_Variant>
lig_pfkfb3_37-1

> <s_m_Source_File>
ligprep_pfkfb3-out.maegz

> <s_m_Source_Path>
C:\Users\yujie\Desktop\FEP\ligprep_pfkfb3

> <s_m_entry_id>
10900

> <s_m_entry_name>
label.7

> <s_m_job_name>
ligprep_pfkfb3

> <s_m_source_file>
ligprep_pfkfb3.maegz

$$$$
