lig_pfkfb3_46
                    3D
 Schrodinger Suite 2020-3.
 46 49  0  0  1  0            999 V2000
   86.7594   45.5549  267.4398 C   0  0  0  0  0  0
   86.9141   47.2681  266.6919 S   0  0  0  0  0  0
   87.6228   48.1166  267.6543 O   0  0  0  0  0  0
   85.5887   47.6669  266.2079 O   0  0  0  0  0  0
   87.9727   47.0010  265.2511 C   0  0  0  0  0  0
   87.3797   46.4245  264.1231 C   0  0  0  0  0  0
   88.1692   46.1499  263.0078 C   0  0  0  0  0  0
   89.4936   46.4297  262.9542 N   0  0  0  0  0  0
   90.0573   47.0057  264.0444 C   0  0  0  0  0  0
   89.3484   47.3125  265.2137 C   0  0  0  0  0  0
   89.9662   47.9853  266.2765 N   0  0  0  0  0  0
   91.3015   48.2306  266.6191 C   0  0  0  0  0  0
   91.5839   49.4121  267.2955 C   0  0  0  0  0  0
   92.8657   49.7337  267.7548 C   0  0  0  0  0  0
   93.0594   50.9967  268.5258 C   0  0  0  0  0  0
   94.1161   51.8732  268.2518 C   0  0  0  0  0  0
   94.2951   53.0231  269.0168 C   0  0  0  0  0  0
   93.4223   53.3020  270.0753 C   0  0  0  0  0  0
   93.6171   54.5125  270.9761 C   0  0  0  0  0  0
   94.6141   55.2949  270.6078 F   0  0  0  0  0  0
   93.8363   54.1125  272.2079 F   0  0  0  0  0  0
   92.5397   55.2599  271.0079 F   0  0  0  0  0  0
   92.3520   52.4475  270.3342 C   0  0  0  0  0  0
   92.1710   51.3125  269.5580 C   0  0  0  0  0  0
   93.9200   48.7946  267.5175 C   0  0  0  0  0  0
   95.1885   49.0330  267.9724 N   0  0  0  0  0  0
   96.1397   48.0962  267.7450 C   0  0  0  0  0  0
   95.8476   46.9125  267.0749 C   0  0  0  0  0  0
   94.6049   46.6442  266.6079 N   0  0  0  0  0  0
   93.6322   47.5733  266.8271 C   0  0  0  0  0  0
   92.3192   47.3126  266.3737 C   0  0  0  0  0  0
   86.1793   45.6325  268.3581 H   0  0  0  0  0  0
   86.2441   44.9125  266.7261 H   0  0  0  0  0  0
   87.7546   45.1686  267.6494 H   0  0  0  0  0  0
   86.3283   46.1656  264.1232 H   0  0  0  0  0  0
   87.7393   45.6823  262.1352 H   0  0  0  0  0  0
   91.1036   47.2477  263.9503 H   0  0  0  0  0  0
   89.2859   48.3686  266.9278 H   0  0  0  0  0  0
   90.7724   50.1027  267.4792 H   0  0  0  0  0  0
   94.8078   51.6622  267.4487 H   0  0  0  0  0  0
   95.1250   53.6791  268.7964 H   0  0  0  0  0  0
   91.6672   52.6567  271.1445 H   0  0  0  0  0  0
   91.3408   50.6624  269.7787 H   0  0  0  0  0  0
   97.1348   48.3106  268.1085 H   0  0  0  0  0  0
   96.6026   46.1590  266.9059 H   0  0  0  0  0  0
   92.1194   46.3790  265.8751 H   0  0  0  0  0  0
  1  2  1  0  0  0
  1 32  1  0  0  0
  1 33  1  0  0  0
  1 34  1  0  0  0
  2  3  2  0  0  0
  2  4  2  0  0  0
  2  5  1  0  0  0
  5 10  1  0  0  0
  5  6  2  0  0  0
  6  7  1  0  0  0
  6 35  1  0  0  0
  7  8  2  0  0  0
  7 36  1  0  0  0
  8  9  1  0  0  0
  9 10  2  0  0  0
  9 37  1  0  0  0
 10 11  1  0  0  0
 11 12  1  0  0  0
 11 38  1  0  0  0
 12 31  1  0  0  0
 12 13  2  0  0  0
 13 14  1  0  0  0
 13 39  1  0  0  0
 14 15  1  0  0  0
 14 25  2  0  0  0
 15 24  1  0  0  0
 15 16  2  0  0  0
 16 17  1  0  0  0
 16 40  1  0  0  0
 17 18  2  0  0  0
 17 41  1  0  0  0
 18 19  1  0  0  0
 18 23  1  0  0  0
 19 20  1  0  0  0
 19 21  1  0  0  0
 19 22  1  0  0  0
 23 24  2  0  0  0
 23 42  1  0  0  0
 24 43  1  0  0  0
 25 30  1  0  0  0
 25 26  1  0  0  0
 26 27  2  0  0  0
 27 28  1  0  0  0
 27 44  1  0  0  0
 28 29  2  0  0  0
 28 45  1  0  0  0
 29 30  1  0  0  0
 30 31  2  0  0  0
 31 46  1  0  0  0
M  END
> <s_m_source_file>
/home/user-home/yujie/0_PBCNetv2/data/FEP/pfkfb3/inp_ligprep.csv

> <i_m_source_file_index>
14

> <i_lp_mmshare_version>
51139

> <i_f3d_flags>
0

> <s_epik_input>
W0NIM11TKD1PKSg9TyljMVtjSF1bY0hdbltjSF1jMVtOSF1jKFtjSF1jKGMyMyluW2NIXVtjSF1uMylbY0hdYzItYzRbY0hdW2NIXWMoQyhGKShGKUYpW2NIXVtjSF00

> <s_epik_cmdline>
J2VwaWtfcHl0aG9uJywgJy1waHQnLCAnMi4wJywgJy1waCcsICc3LjQnLCAnLXRuJywgJzgnLCAnLW1hJywgJzIwMCcsICctaW1hZScsICc8aW5maWxlLm1hZT4nLCAnLW9tYWUnLCAnPG91dGZpbGUubWFlPic=

> <r_lp_tautomer_probability>
1

> <r_epik_Ionization_Penalty>
  0.0000

> <r_epik_Ionization_Penalty_Charging>
  0.0000

> <r_epik_Ionization_Penalty_Neutral>
  0.0000

> <r_epik_State_Penalty>
 -0.0000

> <r_epik_Charging_Adjusted_Penalty>
0

> <i_epik_Tot_Q>
0

> <i_epik_Tot_abs_Q>
0

> <s_lp_Force_Field>
OPLS3e

> <r_lp_Energy>
44.6221

> <b_lp_Chiralities_Consistent>
1

> <s_lp_Variant>
lig_pfkfb3_46-1

> <s_i_glide_gridfile>
pfkfb3-001-gridgen

> <i_i_glide_lignum>
14

> <i_i_glide_rotatable_bonds>
5

> <r_i_docking_score>
-8.47306642628246

> <r_i_glide_ligand_efficiency>
-0.273324723428466

> <r_i_glide_ligand_efficiency_sa>
-0.858616997015586

> <r_i_glide_ligand_efficiency_ln>
-1.91093614742768

> <r_i_glide_gscore>
-8.47306642628246

> <r_i_glide_lipo>
-5.03144461323058

> <r_i_glide_hbond>
0

> <r_i_glide_metal>
-0

> <r_i_glide_rewards>
-1.09163977322338

> <r_i_glide_evdw>
-50.5878448486328

> <r_i_glide_ecoul>
-0.48764044046402

> <r_i_glide_erotb>
0.303767175299781

> <r_i_glide_esite>
-0.0512109066270352

> <r_i_glide_emodel>
-73.2476366166485

> <r_i_glide_energy>
-51.0754852890968

> <r_i_glide_einternal>
3.39087152481079

> <i_i_glide_confnum>
13

> <i_i_glide_posenum>
307

> <r_i_glide_eff_state_penalty>
-0

$$$$
