lig_pfkfb3_41
                    3D
 Schrodinger Suite 2020-3.
 47 50  0  0  1  0            999 V2000
   87.6652   46.7629  264.8496 C   0  0  0  0  0  0
   87.2879   46.9587  266.6765 S   0  0  0  0  0  0
   85.9150   46.5086  266.9256 O   0  0  0  0  0  0
   87.7104   48.2965  267.1009 O   0  0  0  0  0  0
   88.4076   45.7904  267.4470 C   0  0  0  0  0  0
   87.9189   44.5285  267.8077 C   0  0  0  0  0  0
   88.7752   43.6374  268.4515 C   0  0  0  0  0  0
   90.0586   43.9421  268.7611 N   0  0  0  0  0  0
   90.5214   45.1618  268.3913 C   0  0  0  0  0  0
   89.7543   46.1127  267.6991 C   0  0  0  0  0  0
   90.2925   47.3537  267.3029 N   0  0  0  0  0  0
   91.6209   47.8035  267.2686 C   0  0  0  0  0  0
   91.9281   49.1213  267.6150 C   0  0  0  0  0  0
   93.2513   49.5566  267.7917 C   0  0  0  0  0  0
   93.5339   50.9353  268.2946 C   0  0  0  0  0  0
   94.5375   51.7198  267.7091 C   0  0  0  0  0  0
   94.8441   52.9821  268.2086 C   0  0  0  0  0  0
   94.1456   53.4787  269.3035 C   0  0  0  0  0  0
   93.1704   52.7114  269.9325 C   0  0  0  0  0  0
   92.6223   53.2768  271.0603 O   0  0  0  0  0  0
   91.7387   52.5464  271.8975 C   0  0  0  0  0  0
   91.7395   53.1956  273.0560 F   0  0  0  0  0  0
   90.5072   52.5122  271.3902 F   0  0  0  0  0  0
   92.1397   51.3122  272.1635 F   0  0  0  0  0  0
   92.8443   51.4527  269.4015 C   0  0  0  0  0  0
   94.2990   48.6160  267.5358 C   0  0  0  0  0  0
   95.6048   48.9125  267.8097 N   0  0  0  0  0  0
   96.5479   47.9769  267.5500 C   0  0  0  0  0  0
   96.2116   46.7427  267.0079 C   0  0  0  0  0  0
   94.9347   46.4128  266.7318 N   0  0  0  0  0  0
   93.9739   47.3192  267.0367 C   0  0  0  0  0  0
   92.6377   46.9285  266.9228 C   0  0  0  0  0  0
   86.9399   47.3414  264.2841 H   0  0  0  0  0  0
   88.6788   47.1101  264.6562 H   0  0  0  0  0  0
   87.5609   45.7126  264.5908 H   0  0  0  0  0  0
   86.8972   44.2429  267.5936 H   0  0  0  0  0  0
   88.4272   42.6567  268.7442 H   0  0  0  0  0  0
   91.5401   45.3628  268.6843 H   0  0  0  0  0  0
   89.5794   48.0695  267.2019 H   0  0  0  0  0  0
   91.1158   49.7970  267.8390 H   0  0  0  0  0  0
   95.0794   51.3536  266.8499 H   0  0  0  0  0  0
   95.6183   53.5771  267.7451 H   0  0  0  0  0  0
   94.3937   54.4546  269.6942 H   0  0  0  0  0  0
   92.0837   50.8454  269.8663 H   0  0  0  0  0  0
   97.5725   48.2411  267.7700 H   0  0  0  0  0  0
   96.9459   45.9854  266.7841 H   0  0  0  0  0  0
   92.4261   45.9206  266.6074 H   0  0  0  0  0  0
  1  2  1  0  0  0
  1 33  1  0  0  0
  1 34  1  0  0  0
  1 35  1  0  0  0
  2  3  2  0  0  0
  2  4  2  0  0  0
  2  5  1  0  0  0
  5 10  1  0  0  0
  5  6  2  0  0  0
  6  7  1  0  0  0
  6 36  1  0  0  0
  7  8  2  0  0  0
  7 37  1  0  0  0
  8  9  1  0  0  0
  9 10  2  0  0  0
  9 38  1  0  0  0
 10 11  1  0  0  0
 11 12  1  0  0  0
 11 39  1  0  0  0
 12 32  1  0  0  0
 12 13  2  0  0  0
 13 14  1  0  0  0
 13 40  1  0  0  0
 14 15  1  0  0  0
 14 26  2  0  0  0
 15 25  1  0  0  0
 15 16  2  0  0  0
 16 17  1  0  0  0
 16 41  1  0  0  0
 17 18  2  0  0  0
 17 42  1  0  0  0
 18 19  1  0  0  0
 18 43  1  0  0  0
 19 20  1  0  0  0
 19 25  2  0  0  0
 20 21  1  0  0  0
 21 22  1  0  0  0
 21 23  1  0  0  0
 21 24  1  0  0  0
 25 44  1  0  0  0
 26 31  1  0  0  0
 26 27  1  0  0  0
 27 28  2  0  0  0
 28 29  1  0  0  0
 28 45  1  0  0  0
 29 30  2  0  0  0
 29 46  1  0  0  0
 30 31  1  0  0  0
 31 32  2  0  0  0
 32 47  1  0  0  0
M  END
> <s_m_source_file>
/home/user-home/yujie/0_PBCNetv2/data/FEP/pfkfb3/inp_ligprep.csv

> <i_m_source_file_index>
30

> <i_lp_mmshare_version>
51139

> <i_f3d_flags>
0

> <s_epik_input>
W0NIM11TKD1PKSg9TyljMVtjSF1bY0hdbltjSF1jMVtOSF1jKFtjSF1jKGMyMyluW2NIXVtjSF1uMylbY0hdYzItYzRbY0hdW2NIXVtjSF1jKFtjSF00KU9DKEYpKEYpRg==

> <s_epik_cmdline>
J2VwaWtfcHl0aG9uJywgJy1waHQnLCAnMi4wJywgJy1waCcsICc3LjQnLCAnLXRuJywgJzgnLCAnLW1hJywgJzIwMCcsICctaW1hZScsICc8aW5maWxlLm1hZT4nLCAnLW9tYWUnLCAnPG91dGZpbGUubWFlPic=

> <r_lp_tautomer_probability>
1

> <r_epik_Ionization_Penalty>
  0.0000

> <r_epik_Ionization_Penalty_Charging>
  0.0000

> <r_epik_Ionization_Penalty_Neutral>
  0.0000

> <r_epik_State_Penalty>
 -0.0000

> <r_epik_Charging_Adjusted_Penalty>
0

> <i_epik_Tot_Q>
0

> <i_epik_Tot_abs_Q>
0

> <s_lp_Force_Field>
OPLS3e

> <r_lp_Energy>
46.5651

> <b_lp_Chiralities_Consistent>
1

> <s_lp_Variant>
lig_pfkfb3_41-1

> <s_i_glide_gridfile>
pfkfb3-001-gridgen

> <i_i_glide_lignum>
32

> <i_i_glide_rotatable_bonds>
6

> <r_i_docking_score>
-7.28967386218608

> <r_i_glide_ligand_efficiency>
-0.227802308193315

> <r_i_glide_ligand_efficiency_sa>
-0.7232272464982

> <r_i_glide_ligand_efficiency_ln>
-1.63235668674807

> <r_i_glide_gscore>
-7.28967386218608

> <r_i_glide_lipo>
-4.25148062616269

> <r_i_glide_hbond>
0

> <r_i_glide_metal>
-0

> <r_i_glide_rewards>
-1.05250851204102

> <r_i_glide_evdw>
-49.829231262207

> <r_i_glide_ecoul>
1.44888353347778

> <r_i_glide_erotb>
0.379787854560649

> <r_i_glide_esite>
-0.0913435454543376

> <r_i_glide_emodel>
-69.5645249514523

> <r_i_glide_energy>
-48.3803477287292

> <r_i_glide_einternal>
3.67875933647156

> <i_i_glide_confnum>
4

> <i_i_glide_posenum>
349

> <r_i_glide_eff_state_penalty>
-0

$$$$
