agenerase.sdf
                    3D
 Schrodinger Suite 2024-1.
 70 72  0  0  1  0            999 V2000
   12.6536   18.2902   11.3150 C   0  0  0  0  0  0
   12.6422   19.2688   10.3035 C   0  0  0  0  0  0
   12.0061   18.9995    9.0764 C   0  0  0  0  0  0
   11.3378   17.7908    8.8550 C   0  0  0  0  0  0
   11.3652   16.8146    9.8605 C   0  0  0  0  0  0
   12.0144   17.0574   11.0909 C   0  0  0  0  0  0
   13.2352   20.5125   10.5051 N   0  0  0  0  0  0
   10.5055   15.2766    9.6213 S   0  0  0  0  0  0
   10.1149   14.8278   10.9639 O   0  0  0  0  0  0
    9.4916   15.4466    8.5684 O   0  0  0  0  0  0
   11.7403   14.2107    9.0049 N   0  0  0  0  0  0
   12.8811   13.8020    9.8396 C   0  0  0  0  0  0
   12.6426   12.4392   10.5220 C   0  0  0  0  0  0
   13.5772   12.2664   11.7286 C   0  0  0  0  0  0
   12.7984   11.2488    9.5606 C   0  0  0  0  0  0
   11.8228   13.8946    7.5673 C   0  0  0  0  0  0
   12.3897   15.0448    6.7054 C   0  0  1  0  0  0
   13.8039   14.9990    6.7104 O   0  0  0  0  0  0
   11.8036   14.9847    5.2642 C   0  0  2  0  0  0
   12.7817   15.3992    4.1346 C   0  0  0  0  0  0
   10.5718   15.7779    5.2754 N   0  0  0  0  0  0
   12.2336   15.3734    2.7072 C   0  0  0  0  0  0
   11.2069   16.2504    2.2839 C   0  0  0  0  0  0
   10.7689   16.2539    0.9481 C   0  0  0  0  0  0
   11.3719   15.3979    0.0120 C   0  0  0  0  0  0
   12.3820   14.5086    0.4213 C   0  0  0  0  0  0
   12.8069   14.4947    1.7632 C   0  0  0  0  0  0
    9.3415   15.2664    4.9129 C   0  0  0  0  0  0
    8.3771   16.1068    5.3350 O   0  0  0  0  0  0
    9.1470   14.1993    4.3455 O   0  0  0  0  0  0
    6.9996   15.7186    5.4370 C   0  0  2  0  0  0
    6.7423   14.6251    6.4898 C   0  0  0  0  0  0
    5.7867   13.7569    5.8939 O   0  0  0  0  0  0
    6.0491   13.7224    4.4986 C   0  0  0  0  0  0
    6.3514   15.1816    4.1585 C   0  0  0  0  0  0
   13.1384   18.4820   12.2617 H   0  0  0  0  0  0
   12.0075   19.7437    8.2980 H   0  0  0  0  0  0
   10.8115   17.6263    7.9275 H   0  0  0  0  0  0
   12.0098   16.3088   11.8697 H   0  0  0  0  0  0
   12.9018   21.2650    9.9139 H   0  0  0  0  0  0
   13.4571   20.7887   11.4491 H   0  0  0  0  0  0
   13.7975   13.7831    9.2475 H   0  0  0  0  0  0
   13.0405   14.5629   10.6024 H   0  0  0  0  0  0
   11.6217   12.4285   10.9008 H   0  0  0  0  0  0
   14.6263   12.3039   11.4300 H   0  0  0  0  0  0
   13.4110   13.0527   12.4691 H   0  0  0  0  0  0
   13.4048   11.3101   12.2247 H   0  0  0  0  0  0
   13.7652   11.2645    9.0560 H   0  0  0  0  0  0
   12.7203   10.3028   10.0944 H   0  0  0  0  0  0
   12.0162   11.2442    8.8006 H   0  0  0  0  0  0
   12.4011   12.9875    7.3959 H   0  0  0  0  0  0
   10.8084   13.6555    7.2431 H   0  0  0  0  0  0
   12.1386   16.0045    7.1429 H   0  0  0  0  0  0
   14.1242   15.8366    6.3952 H   0  0  0  0  0  0
   11.5644   13.9412    5.0462 H   0  0  0  0  0  0
   13.2077   16.3719    4.3381 H   0  0  0  0  0  0
   13.6349   14.7198    4.1587 H   0  0  0  0  0  0
   10.5624   16.6755    5.7355 H   0  0  0  0  0  0
   10.7603   16.9508    2.9730 H   0  0  0  0  0  0
    9.9894   16.9333    0.6367 H   0  0  0  0  0  0
   11.0608   15.4122   -1.0219 H   0  0  0  0  0  0
   12.8459   13.8480   -0.2966 H   0  0  0  0  0  0
   13.6022   13.8229    2.0534 H   0  0  0  0  0  0
    6.4420   16.5996    5.7395 H   0  0  0  0  0  0
    7.6420   14.0529    6.7143 H   0  0  0  0  0  0
    6.3693   15.0362    7.4289 H   0  0  0  0  0  0
    5.2071   13.3258    3.9383 H   0  0  0  0  0  0
    6.9035   13.0723    4.3106 H   0  0  0  0  0  0
    5.4168   15.7151    3.9777 H   0  0  0  0  0  0
    6.9675   15.2899    3.2664 H   0  0  0  0  0  0
  1  2  2  0  0  0
  1  6  1  0  0  0
  1 36  1  0  0  0
  2  3  1  0  0  0
  2  7  1  0  0  0
  3  4  2  0  0  0
  3 37  1  0  0  0
  4  5  1  0  0  0
  4 38  1  0  0  0
  5  6  2  0  0  0
  5  8  1  0  0  0
  6 39  1  0  0  0
  7 40  1  0  0  0
  7 41  1  0  0  0
  8  9  2  0  0  0
  8 10  2  0  0  0
  8 11  1  0  0  0
 11 12  1  0  0  0
 11 16  1  0  0  0
 12 13  1  0  0  0
 12 42  1  0  0  0
 12 43  1  0  0  0
 13 14  1  0  0  0
 13 15  1  0  0  0
 13 44  1  0  0  0
 14 45  1  0  0  0
 14 46  1  0  0  0
 14 47  1  0  0  0
 15 48  1  0  0  0
 15 49  1  0  0  0
 15 50  1  0  0  0
 16 17  1  0  0  0
 16 51  1  0  0  0
 16 52  1  0  0  0
 17 18  1  0  0  0
 17 19  1  0  0  0
 17 53  1  0  0  0
 18 54  1  0  0  0
 19 20  1  0  0  0
 19 21  1  0  0  0
 19 55  1  0  0  0
 20 22  1  0  0  0
 20 56  1  0  0  0
 20 57  1  0  0  0
 21 28  1  0  0  0
 21 58  1  0  0  0
 22 23  2  0  0  0
 22 27  1  0  0  0
 23 24  1  0  0  0
 23 59  1  0  0  0
 24 25  2  0  0  0
 24 60  1  0  0  0
 25 26  1  0  0  0
 25 61  1  0  0  0
 26 27  2  0  0  0
 26 62  1  0  0  0
 27 63  1  0  0  0
 28 29  1  0  0  0
 28 30  2  0  0  0
 29 31  1  0  0  0
 31 32  1  0  0  0
 31 35  1  0  0  0
 31 64  1  0  0  0
 32 33  1  0  0  0
 32 65  1  0  0  0
 32 66  1  0  0  0
 33 34  1  0  0  0
 34 35  1  0  0  0
 34 67  1  0  0  0
 34 68  1  0  0  0
 35 69  1  0  0  0
 35 70  1  0  0  0
M  END
> <i_epik_Tot_Q>
0

> <i_epik_Tot_abs_Q>
0

> <i_f3d_flags>
0

> <i_i_glide_confnum>
334

> <i_i_glide_lignum>
1

> <i_i_glide_posenum>
170

> <i_i_glide_rotatable_bonds>
14

> <i_lp_mmshare_version>
65135

> <i_m_Source_File_Index>
1

> <i_m_source_file_index>
1

> <b_lp_Chiralities_Consistent>
1

> <b_m_subgroup_collapsed>
0

> <r_epik_Charging_Adjusted_Penalty>
0

> <r_epik_Ionization_Penalty>
0

> <r_epik_Ionization_Penalty_Charging>
0

> <r_epik_Ionization_Penalty_Neutral>
0

> <r_epik_State_Penalty>
0

> <r_i_docking_score>
-3.87608

> <r_i_glide_ecoul>
-6.58619

> <r_i_glide_eff_state_penalty>
0

> <r_i_glide_einternal>
23.474

> <r_i_glide_emodel>
-34.0581

> <r_i_glide_energy>
-36.2097

> <r_i_glide_erotb>
0.800072

> <r_i_glide_esite>
-0.0475287

> <r_i_glide_evdw>
-29.6235

> <r_i_glide_gscore>
-3.87608

> <r_i_glide_hbond>
-0.252836

> <r_i_glide_ligand_efficiency>
-0.110745

> <r_i_glide_ligand_efficiency_ln>
-0.850885

> <r_i_glide_ligand_efficiency_sa>
-0.362254

> <r_i_glide_lipo>
-1.78177

> <r_i_glide_metal>
0

> <r_i_glide_rewards>
-0.124913

> <r_lp_Energy>
19.4315

> <r_lp_tautomer_probability>
1

> <s_epik_Chemistry_Notes>
This compound has an ester and may undergo hydrolysis at high or low pH.

> <s_epik_cmdline>
J2VwaWtfcHl0aG9uJywgJy1waCcsICc3LjAnLCAnLXRuJywgJzgnLCAnLW1hJywgJzUwMCcsICctaW1hZScsICc8aW5maWxlLm1hZT4nLCAnLW9tYWUnLCAnPG91dGZpbGUubWFlPic=

> <s_epik_input>
W05IMl1jMVtjSF1bY0hdYyhbY0hdW2NIXTEpUyg9TykoPU8pTihbQ0gyXVtDSF0oW0NIM10pW0NIM10pW0NIMl1bQ0BASF0oW09IXSlbQ0BIXShbQ0gyXWMyW2NIXVtjSF1bY0hdW2NIXVtjSF0yKVtOSF1DKD1PKU9bQ0BASF0zW0NIMl1PW0NIMl1bQ0gyXTM=

> <s_i_glide_gridfile>
glide-grid_P04587_V82I

> <s_lp_Force_Field>
S-OPLS

> <s_lp_Variant>
agenerase.sdf-1

> <s_m_Source_File>
glide-dock_SP_P04587_V82I_pv.maegz

> <s_m_Source_Path>
D:\project\glide-dock_SP_P04587_V82I

> <s_m_entry_id>
445

> <s_m_entry_name>
agenerase.1

> <s_m_job_name>
glide-dock_SP_P04587_V82I

> <s_m_source_file>
ligprep_Agenerase.maegz

> <s_m_subgroup_title>
glide-dock_SP_P04587_V82I_pv

> <s_m_subgroupid>
glide-dock_SP_P04587_V82I_pv

$$$$
