agenerase.sdf
                    3D
 Schrodinger Suite 2024-1.
 70 72  0  0  1  0            999 V2000
   10.3937   19.1581    9.7559 C   0  0  0  0  0  0
   11.1457   19.3897   10.9207 C   0  0  0  0  0  0
   10.9143   18.6125   12.0750 C   0  0  0  0  0  0
    9.9279   17.6054   12.0510 C   0  0  0  0  0  0
    9.1905   17.3799   10.8695 C   0  0  0  0  0  0
    9.4177   18.1524    9.7173 C   0  0  0  0  0  0
   12.1017   20.3996   10.9111 N   0  0  0  0  0  0
    7.9493   16.1039   10.8361 S   0  0  0  0  0  0
    8.5775   14.9499   10.1842 O   0  0  0  0  0  0
    7.3768   15.9739   12.1854 O   0  0  0  0  0  0
    6.7246   16.7519    9.7762 N   0  0  0  0  0  0
    5.9503   17.9291   10.2244 C   0  0  0  0  0  0
    4.4968   17.6178   10.6635 C   0  0  0  0  0  0
    3.7374   18.9193   10.9553 C   0  0  0  0  0  0
    4.4092   16.6768   11.8734 C   0  0  0  0  0  0
    6.1084   15.9119    8.7258 C   0  0  0  0  0  0
    7.1038   15.4390    7.6330 C   0  0  1  0  0  0
    7.2746   14.0398    7.7648 O   0  0  0  0  0  0
    6.6444   15.7551    6.1749 C   0  0  2  0  0  0
    5.2318   15.2560    5.7560 C   0  0  0  0  0  0
    7.6305   15.2782    5.2049 N   0  0  0  0  0  0
    5.0097   13.7657    5.9521 C   0  0  0  0  0  0
    5.5503   12.8346    5.0384 C   0  0  0  0  0  0
    5.4302   11.4545    5.2853 C   0  0  0  0  0  0
    4.7751   11.0021    6.4477 C   0  0  0  0  0  0
    4.2031   11.9238    7.3429 C   0  0  0  0  0  0
    4.3121   13.3051    7.0910 C   0  0  0  0  0  0
    8.7751   15.9680    4.8557 C   0  0  0  0  0  0
    9.3590   15.3195    3.8366 O   0  0  0  0  0  0
    9.1750   17.0172    5.3564 O   0  0  0  0  0  0
   10.4538   15.9156    3.1514 C   0  0  2  0  0  0
   10.0031   16.6422    1.8843 C   0  0  0  0  0  0
   11.1731   16.6183    1.0832 O   0  0  0  0  0  0
   11.7200   15.3105    1.1892 C   0  0  0  0  0  0
   11.4210   14.8654    2.6251 C   0  0  0  0  0  0
   10.5542   19.7682    8.8836 H   0  0  0  0  0  0
   11.4858   18.7839   12.9770 H   0  0  0  0  0  0
    9.7435   17.0042   12.9291 H   0  0  0  0  0  0
    8.8562   17.9856    8.8090 H   0  0  0  0  0  0
   12.4957   20.7423   11.7752 H   0  0  0  0  0  0
   12.0780   21.0564   10.1386 H   0  0  0  0  0  0
    6.4845   18.4254   11.0354 H   0  0  0  0  0  0
    5.9306   18.6464    9.4034 H   0  0  0  0  0  0
    3.9752   17.1330    9.8432 H   0  0  0  0  0  0
    4.1944   19.4657   11.7807 H   0  0  0  0  0  0
    3.7322   19.5744   10.0837 H   0  0  0  0  0  0
    2.6970   18.7210   11.2218 H   0  0  0  0  0  0
    4.9413   17.0842   12.7344 H   0  0  0  0  0  0
    3.3734   16.5085   12.1692 H   0  0  0  0  0  0
    4.8390   15.7021   11.6477 H   0  0  0  0  0  0
    5.5957   15.0738    9.1989 H   0  0  0  0  0  0
    5.3345   16.5003    8.2386 H   0  0  0  0  0  0
    8.0762   15.9094    7.7927 H   0  0  0  0  0  0
    6.4740   13.6235    7.4811 H   0  0  0  0  0  0
    6.6136   16.8415    6.0846 H   0  0  0  0  0  0
    4.4600   15.8021    6.2989 H   0  0  0  0  0  0
    5.0549   15.4961    4.7060 H   0  0  0  0  0  0
    7.4656   14.4113    4.7181 H   0  0  0  0  0  0
    6.0706   13.1706    4.1534 H   0  0  0  0  0  0
    5.8554   10.7402    4.5946 H   0  0  0  0  0  0
    4.6952    9.9398    6.6390 H   0  0  0  0  0  0
    3.6868   11.5736    8.2267 H   0  0  0  0  0  0
    3.8918   14.0092    7.7959 H   0  0  0  0  0  0
   11.0090   16.6073    3.7848 H   0  0  0  0  0  0
    9.2098   16.0894    1.3786 H   0  0  0  0  0  0
    9.6392   17.6510    2.0739 H   0  0  0  0  0  0
   12.7864   15.3102    0.9657 H   0  0  0  0  0  0
   11.2205   14.6555    0.4718 H   0  0  0  0  0  0
   12.3232   14.8340    3.2353 H   0  0  0  0  0  0
   10.9824   13.8678    2.6280 H   0  0  0  0  0  0
  1  2  2  0  0  0
  1  6  1  0  0  0
  1 36  1  0  0  0
  2  3  1  0  0  0
  2  7  1  0  0  0
  3  4  2  0  0  0
  3 37  1  0  0  0
  4  5  1  0  0  0
  4 38  1  0  0  0
  5  6  2  0  0  0
  5  8  1  0  0  0
  6 39  1  0  0  0
  7 40  1  0  0  0
  7 41  1  0  0  0
  8  9  2  0  0  0
  8 10  2  0  0  0
  8 11  1  0  0  0
 11 12  1  0  0  0
 11 16  1  0  0  0
 12 13  1  0  0  0
 12 42  1  0  0  0
 12 43  1  0  0  0
 13 14  1  0  0  0
 13 15  1  0  0  0
 13 44  1  0  0  0
 14 45  1  0  0  0
 14 46  1  0  0  0
 14 47  1  0  0  0
 15 48  1  0  0  0
 15 49  1  0  0  0
 15 50  1  0  0  0
 16 17  1  0  0  0
 16 51  1  0  0  0
 16 52  1  0  0  0
 17 18  1  0  0  0
 17 19  1  0  0  0
 17 53  1  0  0  0
 18 54  1  0  0  0
 19 20  1  0  0  0
 19 21  1  0  0  0
 19 55  1  0  0  0
 20 22  1  0  0  0
 20 56  1  0  0  0
 20 57  1  0  0  0
 21 28  1  0  0  0
 21 58  1  0  0  0
 22 23  2  0  0  0
 22 27  1  0  0  0
 23 24  1  0  0  0
 23 59  1  0  0  0
 24 25  2  0  0  0
 24 60  1  0  0  0
 25 26  1  0  0  0
 25 61  1  0  0  0
 26 27  2  0  0  0
 26 62  1  0  0  0
 27 63  1  0  0  0
 28 29  1  0  0  0
 28 30  2  0  0  0
 29 31  1  0  0  0
 31 32  1  0  0  0
 31 35  1  0  0  0
 31 64  1  0  0  0
 32 33  1  0  0  0
 32 65  1  0  0  0
 32 66  1  0  0  0
 33 34  1  0  0  0
 34 35  1  0  0  0
 34 67  1  0  0  0
 34 68  1  0  0  0
 35 69  1  0  0  0
 35 70  1  0  0  0
M  END
> <i_epik_Tot_Q>
0

> <i_epik_Tot_abs_Q>
0

> <i_f3d_flags>
0

> <i_i_glide_confnum>
333

> <i_i_glide_lignum>
1

> <i_i_glide_posenum>
338

> <i_i_glide_rotatable_bonds>
14

> <i_lp_mmshare_version>
65135

> <i_m_Source_File_Index>
1

> <i_m_source_file_index>
1

> <b_lp_Chiralities_Consistent>
1

> <b_m_subgroup_collapsed>
0

> <r_epik_Charging_Adjusted_Penalty>
0

> <r_epik_Ionization_Penalty>
0

> <r_epik_Ionization_Penalty_Charging>
0

> <r_epik_Ionization_Penalty_Neutral>
0

> <r_epik_State_Penalty>
0

> <r_i_docking_score>
-4.58079

> <r_i_glide_ecoul>
-7.75953

> <r_i_glide_eff_state_penalty>
0

> <r_i_glide_einternal>
19.7725

> <r_i_glide_emodel>
-40.3476

> <r_i_glide_energy>
-40.8689

> <r_i_glide_erotb>
0.800072

> <r_i_glide_esite>
-0.0584495

> <r_i_glide_evdw>
-33.1094

> <r_i_glide_gscore>
-4.58079

> <r_i_glide_hbond>
-0.376021

> <r_i_glide_ligand_efficiency>
-0.13088

> <r_i_glide_ligand_efficiency_ln>
-1.00558

> <r_i_glide_ligand_efficiency_sa>
-0.428116

> <r_i_glide_lipo>
-2.23458

> <r_i_glide_metal>
0

> <r_i_glide_rewards>
0.107594

> <r_lp_Energy>
19.4315

> <r_lp_tautomer_probability>
1

> <s_epik_Chemistry_Notes>
This compound has an ester and may undergo hydrolysis at high or low pH.

> <s_epik_cmdline>
J2VwaWtfcHl0aG9uJywgJy1waCcsICc3LjAnLCAnLXRuJywgJzgnLCAnLW1hJywgJzUwMCcsICctaW1hZScsICc8aW5maWxlLm1hZT4nLCAnLW9tYWUnLCAnPG91dGZpbGUubWFlPic=

> <s_epik_input>
W05IMl1jMVtjSF1bY0hdYyhbY0hdW2NIXTEpUyg9TykoPU8pTihbQ0gyXVtDSF0oW0NIM10pW0NIM10pW0NIMl1bQ0BASF0oW09IXSlbQ0BIXShbQ0gyXWMyW2NIXVtjSF1bY0hdW2NIXVtjSF0yKVtOSF1DKD1PKU9bQ0BASF0zW0NIMl1PW0NIMl1bQ0gyXTM=

> <s_i_glide_gridfile>
glide-grid_P04587_V82A

> <s_lp_Force_Field>
S-OPLS

> <s_lp_Variant>
agenerase.sdf-1

> <s_m_Source_File>
glide-dock_SP_P04587_V82A_pv.maegz

> <s_m_Source_Path>
D:\project\glide-dock_SP_P04587_V82A

> <s_m_entry_id>
427

> <s_m_entry_name>
agenerase.1

> <s_m_job_name>
glide-dock_SP_P04587_V82A

> <s_m_source_file>
ligprep_Agenerase.maegz

> <s_m_subgroup_title>
glide-dock_SP_P04587_V82A_pv

> <s_m_subgroupid>
glide-dock_SP_P04587_V82A_pv

$$$$
