agenerase.sdf
                    3D
 Schrodinger Suite 2024-1.
 70 72  0  0  1  0            999 V2000
    4.8914   15.3808   12.2665 C   0  0  0  0  0  0
    3.8550   14.6250   11.6797 C   0  0  0  0  0  0
    4.0314   14.0603   10.3993 C   0  0  0  0  0  0
    5.2383   14.2568    9.7010 C   0  0  0  0  0  0
    6.2684   15.0208   10.2885 C   0  0  0  0  0  0
    6.1021   15.5740   11.5739 C   0  0  0  0  0  0
    2.6591   14.4344   12.3674 N   0  0  0  0  0  0
    7.8272   15.2402    9.4341 S   0  0  0  0  0  0
    8.8699   15.5013   10.4383 O   0  0  0  0  0  0
    7.9908   14.1289    8.4810 O   0  0  0  0  0  0
    7.5636   16.7071    8.5400 N   0  0  0  0  0  0
    7.7187   18.0163    9.2065 C   0  0  0  0  0  0
    6.4649   18.9163    9.1028 C   0  0  0  0  0  0
    6.7973   20.3380    9.5744 C   0  0  0  0  0  0
    5.2520   18.3664    9.8666 C   0  0  0  0  0  0
    7.5366   16.6999    7.0638 C   0  0  0  0  0  0
    6.3347   15.9021    6.4953 C   0  0  1  0  0  0
    5.1593   16.6646    6.6968 O   0  0  0  0  0  0
    6.4555   15.5527    4.9853 C   0  0  2  0  0  0
    5.2807   14.7230    4.4161 C   0  0  0  0  0  0
    7.6947   14.8288    4.7074 N   0  0  0  0  0  0
    4.8401   13.5517    5.2839 C   0  0  0  0  0  0
    5.5321   12.3237    5.2749 C   0  0  0  0  0  0
    5.0892   11.2626    6.0916 C   0  0  0  0  0  0
    3.9590   11.4173    6.9146 C   0  0  0  0  0  0
    3.2552   12.6334    6.9103 C   0  0  0  0  0  0
    3.6983   13.6898    6.0942 C   0  0  0  0  0  0
    8.7194   15.3311    3.9272 C   0  0  0  0  0  0
    9.6279   14.3580    3.7470 O   0  0  0  0  0  0
    8.7871   16.4611    3.4521 O   0  0  0  0  0  0
   10.8247   14.5259    2.9753 C   0  0  2  0  0  0
   11.8308   15.5095    3.5895 C   0  0  0  0  0  0
   12.3628   16.2206    2.4805 O   0  0  0  0  0  0
   11.3365   16.3732    1.5169 C   0  0  0  0  0  0
   10.6346   15.0230    1.5375 C   0  0  0  0  0  0
    4.7642   15.8125   13.2490 H   0  0  0  0  0  0
    3.2436   13.4766    9.9467 H   0  0  0  0  0  0
    5.3690   13.8109    8.7270 H   0  0  0  0  0  0
    6.8976   16.1479   12.0252 H   0  0  0  0  0  0
    1.9469   13.8116   12.0161 H   0  0  0  0  0  0
    2.5497   14.7460   13.3233 H   0  0  0  0  0  0
    7.9681   17.8702   10.2575 H   0  0  0  0  0  0
    8.5796   18.5215    8.7649 H   0  0  0  0  0  0
    6.1734   18.9986    8.0621 H   0  0  0  0  0  0
    7.1331   20.3457   10.6117 H   0  0  0  0  0  0
    7.5943   20.7645    8.9634 H   0  0  0  0  0  0
    5.9361   21.0038    9.4965 H   0  0  0  0  0  0
    5.4607   18.2685   10.9309 H   0  0  0  0  0  0
    4.3900   19.0244    9.7570 H   0  0  0  0  0  0
    4.9553   17.3908    9.4842 H   0  0  0  0  0  0
    7.5613   17.7166    6.6730 H   0  0  0  0  0  0
    8.4763   16.2524    6.7412 H   0  0  0  0  0  0
    6.2175   14.9745    7.0431 H   0  0  0  0  0  0
    5.2101   17.4554    6.1818 H   0  0  0  0  0  0
    6.4704   16.4865    4.4222 H   0  0  0  0  0  0
    4.4237   15.3830    4.2753 H   0  0  0  0  0  0
    5.5265   14.3561    3.4176 H   0  0  0  0  0  0
    7.7987   13.8783    5.0284 H   0  0  0  0  0  0
    6.3916   12.1857    4.6352 H   0  0  0  0  0  0
    5.5945   10.3117    6.0806 H   0  0  0  0  0  0
    3.6220   10.5974    7.5319 H   0  0  0  0  0  0
    2.3784   12.7553    7.5289 H   0  0  0  0  0  0
    3.1630   14.6206    6.0809 H   0  0  0  0  0  0
   11.2967   13.5442    2.9197 H   0  0  0  0  0  0
   11.3510   16.2197    4.2629 H   0  0  0  0  0  0
   12.6171   15.0035    4.1492 H   0  0  0  0  0  0
   11.7428   16.6150    0.5346 H   0  0  0  0  0  0
   10.6680   17.1804    1.8173 H   0  0  0  0  0  0
   11.1410   14.3419    0.8527 H   0  0  0  0  0  0
    9.5959   15.1014    1.2178 H   0  0  0  0  0  0
  1  2  2  0  0  0
  1  6  1  0  0  0
  1 36  1  0  0  0
  2  3  1  0  0  0
  2  7  1  0  0  0
  3  4  2  0  0  0
  3 37  1  0  0  0
  4  5  1  0  0  0
  4 38  1  0  0  0
  5  6  2  0  0  0
  5  8  1  0  0  0
  6 39  1  0  0  0
  7 40  1  0  0  0
  7 41  1  0  0  0
  8  9  2  0  0  0
  8 10  2  0  0  0
  8 11  1  0  0  0
 11 12  1  0  0  0
 11 16  1  0  0  0
 12 13  1  0  0  0
 12 42  1  0  0  0
 12 43  1  0  0  0
 13 14  1  0  0  0
 13 15  1  0  0  0
 13 44  1  0  0  0
 14 45  1  0  0  0
 14 46  1  0  0  0
 14 47  1  0  0  0
 15 48  1  0  0  0
 15 49  1  0  0  0
 15 50  1  0  0  0
 16 17  1  0  0  0
 16 51  1  0  0  0
 16 52  1  0  0  0
 17 18  1  0  0  0
 17 19  1  0  0  0
 17 53  1  0  0  0
 18 54  1  0  0  0
 19 20  1  0  0  0
 19 21  1  0  0  0
 19 55  1  0  0  0
 20 22  1  0  0  0
 20 56  1  0  0  0
 20 57  1  0  0  0
 21 28  1  0  0  0
 21 58  1  0  0  0
 22 23  2  0  0  0
 22 27  1  0  0  0
 23 24  1  0  0  0
 23 59  1  0  0  0
 24 25  2  0  0  0
 24 60  1  0  0  0
 25 26  1  0  0  0
 25 61  1  0  0  0
 26 27  2  0  0  0
 26 62  1  0  0  0
 27 63  1  0  0  0
 28 29  1  0  0  0
 28 30  2  0  0  0
 29 31  1  0  0  0
 31 32  1  0  0  0
 31 35  1  0  0  0
 31 64  1  0  0  0
 32 33  1  0  0  0
 32 65  1  0  0  0
 32 66  1  0  0  0
 33 34  1  0  0  0
 34 35  1  0  0  0
 34 67  1  0  0  0
 34 68  1  0  0  0
 35 69  1  0  0  0
 35 70  1  0  0  0
M  END
> <i_epik_Tot_Q>
0

> <i_epik_Tot_abs_Q>
0

> <i_f3d_flags>
0

> <i_i_glide_confnum>
990

> <i_i_glide_lignum>
1

> <i_i_glide_posenum>
107

> <i_i_glide_rotatable_bonds>
14

> <i_lp_mmshare_version>
65135

> <i_m_Source_File_Index>
1

> <i_m_source_file_index>
1

> <b_lp_Chiralities_Consistent>
1

> <b_m_subgroup_collapsed>
0

> <r_epik_Charging_Adjusted_Penalty>
0

> <r_epik_Ionization_Penalty>
0

> <r_epik_Ionization_Penalty_Charging>
0

> <r_epik_Ionization_Penalty_Neutral>
0

> <r_epik_State_Penalty>
0

> <r_i_docking_score>
-4.6207

> <r_i_glide_ecoul>
-6.24597

> <r_i_glide_eff_state_penalty>
0

> <r_i_glide_einternal>
19.3773

> <r_i_glide_emodel>
-42.6867

> <r_i_glide_energy>
-40.3837

> <r_i_glide_erotb>
0.800072

> <r_i_glide_esite>
-0.0653419

> <r_i_glide_evdw>
-34.1377

> <r_i_glide_gscore>
-4.6207

> <r_i_glide_hbond>
-0.32

> <r_i_glide_ligand_efficiency>
-0.13202

> <r_i_glide_ligand_efficiency_ln>
-1.01435

> <r_i_glide_ligand_efficiency_sa>
-0.431846

> <r_i_glide_lipo>
-2.13766

> <r_i_glide_metal>
0

> <r_i_glide_rewards>
-0.253981

> <r_lp_Energy>
19.4315

> <r_lp_tautomer_probability>
1

> <s_epik_Chemistry_Notes>
This compound has an ester and may undergo hydrolysis at high or low pH.

> <s_epik_cmdline>
J2VwaWtfcHl0aG9uJywgJy1waCcsICc3LjAnLCAnLXRuJywgJzgnLCAnLW1hJywgJzUwMCcsICctaW1hZScsICc8aW5maWxlLm1hZT4nLCAnLW9tYWUnLCAnPG91dGZpbGUubWFlPic=

> <s_epik_input>
W05IMl1jMVtjSF1bY0hdYyhbY0hdW2NIXTEpUyg9TykoPU8pTihbQ0gyXVtDSF0oW0NIM10pW0NIM10pW0NIMl1bQ0BASF0oW09IXSlbQ0BIXShbQ0gyXWMyW2NIXVtjSF1bY0hdW2NIXVtjSF0yKVtOSF1DKD1PKU9bQ0BASF0zW0NIMl1PW0NIMl1bQ0gyXTM=

> <s_i_glide_gridfile>
glide-grid_P04587_M46I

> <s_lp_Force_Field>
S-OPLS

> <s_lp_Variant>
agenerase.sdf-1

> <s_m_Source_File>
glide-dock_SP_P04587_M46I_pv.maegz

> <s_m_Source_Path>
D:\project\glide-dock_SP_P04587_M46I

> <s_m_entry_id>
418

> <s_m_entry_name>
agenerase.1

> <s_m_job_name>
glide-dock_SP_P04587_M46I

> <s_m_source_file>
ligprep_Agenerase.maegz

> <s_m_subgroup_title>
glide-dock_SP_P04587_M46I_pv

> <s_m_subgroupid>
glide-dock_SP_P04587_M46I_pv

$$$$
