agenerase.sdf
                    3D
 Schrodinger Suite 2024-1.
 70 72  0  0  1  0            999 V2000
    7.9586   20.2276    9.8623 C   0  0  0  0  0  0
    8.7424   20.4500   11.0117 C   0  0  0  0  0  0
    8.2193   20.1507   12.2875 C   0  0  0  0  0  0
    6.9178   19.6205   12.4120 C   0  0  0  0  0  0
    6.1462   19.3872   11.2556 C   0  0  0  0  0  0
    6.6588   19.7077    9.9816 C   0  0  0  0  0  0
   10.0286   20.9695   10.8788 N   0  0  0  0  0  0
    4.4951   18.6983   11.3751 S   0  0  0  0  0  0
    3.7687   19.4285   12.4229 O   0  0  0  0  0  0
    3.9580   18.6279   10.0095 O   0  0  0  0  0  0
    4.7197   17.0625   11.9245 N   0  0  0  0  0  0
    4.9608   16.7433   13.3458 C   0  0  0  0  0  0
    3.7118   16.1912   14.0812 C   0  0  0  0  0  0
    3.2493   14.8120   13.5894 C   0  0  0  0  0  0
    2.5398   17.1831   14.1253 C   0  0  0  0  0  0
    4.9171   15.9772   10.9482 C   0  0  0  0  0  0
    6.3046   16.0197   10.2704 C   0  0  1  0  0  0
    7.2566   15.4285   11.1274 O   0  0  0  0  0  0
    6.3870   15.3427    8.8716 C   0  0  2  0  0  0
    6.4936   16.4113    7.7629 C   0  0  0  0  0  0
    5.2455   14.4563    8.6075 N   0  0  0  0  0  0
    6.4594   15.8178    6.3718 C   0  0  0  0  0  0
    7.6198   15.2326    5.8228 C   0  0  0  0  0  0
    7.5664   14.6289    4.5533 C   0  0  0  0  0  0
    6.3554   14.6144    3.8369 C   0  0  0  0  0  0
    5.2012   15.2092    4.3755 C   0  0  0  0  0  0
    5.2532   15.8097    5.6439 C   0  0  0  0  0  0
    5.3324   13.0831    8.4663 C   0  0  0  0  0  0
    4.0940   12.5860    8.3407 O   0  0  0  0  0  0
    6.3572   12.4054    8.4788 O   0  0  0  0  0  0
    3.8873   11.1811    8.4509 C   0  0  2  0  0  0
    4.2602   10.4250    7.1629 C   0  0  0  0  0  0
    3.1358    9.6052    6.8797 O   0  0  0  0  0  0
    1.9834   10.3289    7.2743 C   0  0  0  0  0  0
    2.3999   10.8975    8.6247 C   0  0  0  0  0  0
    8.3482   20.4550    8.8797 H   0  0  0  0  0  0
    8.8123   20.3248   13.1738 H   0  0  0  0  0  0
    6.5213   19.4019   13.3903 H   0  0  0  0  0  0
    6.0727   19.5439    9.0900 H   0  0  0  0  0  0
   10.6713   21.0216   11.6545 H   0  0  0  0  0  0
   10.4266   21.1148    9.9503 H   0  0  0  0  0  0
    5.7858   16.0332   13.4227 H   0  0  0  0  0  0
    5.2952   17.6433   13.8596 H   0  0  0  0  0  0
    4.0246   16.0439   15.1163 H   0  0  0  0  0  0
    2.8134   14.8669   12.5903 H   0  0  0  0  0  0
    4.0754   14.1004   13.5626 H   0  0  0  0  0  0
    2.4843   14.3997   14.2503 H   0  0  0  0  0  0
    2.1539   17.3863   13.1240 H   0  0  0  0  0  0
    1.7165   16.7878   14.7213 H   0  0  0  0  0  0
    2.8420   18.1296   14.5737 H   0  0  0  0  0  0
    4.7563   15.0019   11.4002 H   0  0  0  0  0  0
    4.1304   16.0943   10.2047 H   0  0  0  0  0  0
    6.6293   17.0484   10.1599 H   0  0  0  0  0  0
    8.1220   15.6106   10.7929 H   0  0  0  0  0  0
    7.3060   14.7577    8.8113 H   0  0  0  0  0  0
    5.6777   17.1299    7.8599 H   0  0  0  0  0  0
    7.4140   16.9854    7.8779 H   0  0  0  0  0  0
    4.3203   14.8516    8.5361 H   0  0  0  0  0  0
    8.5468   15.2307    6.3785 H   0  0  0  0  0  0
    8.4492   14.1662    4.1349 H   0  0  0  0  0  0
    6.3034   14.1313    2.8775 H   0  0  0  0  0  0
    4.2759   15.1933    3.8232 H   0  0  0  0  0  0
    4.3578   16.2412    6.0660 H   0  0  0  0  0  0
    4.4313   10.7849    9.3093 H   0  0  0  0  0  0
    4.4120   11.1142    6.3303 H   0  0  0  0  0  0
    5.1660    9.8294    7.2792 H   0  0  0  0  0  0
    1.1040    9.6867    7.3398 H   0  0  0  0  0  0
    1.7797   11.1242    6.5555 H   0  0  0  0  0  0
    2.2675   10.1377    9.3937 H   0  0  0  0  0  0
    1.8166   11.7722    8.9134 H   0  0  0  0  0  0
  1  2  2  0  0  0
  1  6  1  0  0  0
  1 36  1  0  0  0
  2  3  1  0  0  0
  2  7  1  0  0  0
  3  4  2  0  0  0
  3 37  1  0  0  0
  4  5  1  0  0  0
  4 38  1  0  0  0
  5  6  2  0  0  0
  5  8  1  0  0  0
  6 39  1  0  0  0
  7 40  1  0  0  0
  7 41  1  0  0  0
  8  9  2  0  0  0
  8 10  2  0  0  0
  8 11  1  0  0  0
 11 12  1  0  0  0
 11 16  1  0  0  0
 12 13  1  0  0  0
 12 42  1  0  0  0
 12 43  1  0  0  0
 13 14  1  0  0  0
 13 15  1  0  0  0
 13 44  1  0  0  0
 14 45  1  0  0  0
 14 46  1  0  0  0
 14 47  1  0  0  0
 15 48  1  0  0  0
 15 49  1  0  0  0
 15 50  1  0  0  0
 16 17  1  0  0  0
 16 51  1  0  0  0
 16 52  1  0  0  0
 17 18  1  0  0  0
 17 19  1  0  0  0
 17 53  1  0  0  0
 18 54  1  0  0  0
 19 20  1  0  0  0
 19 21  1  0  0  0
 19 55  1  0  0  0
 20 22  1  0  0  0
 20 56  1  0  0  0
 20 57  1  0  0  0
 21 28  1  0  0  0
 21 58  1  0  0  0
 22 23  2  0  0  0
 22 27  1  0  0  0
 23 24  1  0  0  0
 23 59  1  0  0  0
 24 25  2  0  0  0
 24 60  1  0  0  0
 25 26  1  0  0  0
 25 61  1  0  0  0
 26 27  2  0  0  0
 26 62  1  0  0  0
 27 63  1  0  0  0
 28 29  1  0  0  0
 28 30  2  0  0  0
 29 31  1  0  0  0
 31 32  1  0  0  0
 31 35  1  0  0  0
 31 64  1  0  0  0
 32 33  1  0  0  0
 32 65  1  0  0  0
 32 66  1  0  0  0
 33 34  1  0  0  0
 34 35  1  0  0  0
 34 67  1  0  0  0
 34 68  1  0  0  0
 35 69  1  0  0  0
 35 70  1  0  0  0
M  END
> <Tot Q>
0

> <flags>
0

> <subgroup collapsed>
0

> <Ionization Penalty>
0

> <State Penalty>
0

> <docking score>
-3.08221

> <glide emodel>
-35.5028

> <glide gscore>
-3.08221

> <tautomer probability>
1

> <entry id>
14

> <subgroup title>
glide-dock_SP_P04587_I50V_pv

> <subgroupid>
glide-dock_SP_P04587_I50V_pv

$$$$
