agenerase.sdf
                    3D
 Schrodinger Suite 2024-1.
 70 72  0  0  1  0            999 V2000
    9.7661   17.7050   10.5314 C   0  0  0  0  0  0
   10.5294   18.6696    9.8414 C   0  0  0  0  0  0
   10.8407   18.4791    8.4810 C   0  0  0  0  0  0
   10.3756   17.3420    7.7957 C   0  0  0  0  0  0
    9.6097   16.3859    8.4875 C   0  0  0  0  0  0
    9.3082   16.5566    9.8542 C   0  0  0  0  0  0
   10.9655   19.8247   10.4860 N   0  0  0  0  0  0
    9.1155   14.8870    7.6473 S   0  0  0  0  0  0
   10.0726   14.6251    6.5612 O   0  0  0  0  0  0
    8.8757   13.8724    8.6837 O   0  0  0  0  0  0
    7.5817   15.2780    6.9247 N   0  0  0  0  0  0
    7.5808   16.0228    5.6488 C   0  0  0  0  0  0
    7.6902   15.1085    4.4044 C   0  0  0  0  0  0
    8.7025   15.6855    3.3992 C   0  0  0  0  0  0
    6.3155   14.9070    3.7334 C   0  0  0  0  0  0
    6.4120   14.4210    7.2164 C   0  0  0  0  0  0
    5.0823   15.1976    7.3689 C   0  0  1  0  0  0
    4.0729   14.2243    7.5598 O   0  0  0  0  0  0
    4.9931   16.2303    8.5323 C   0  0  2  0  0  0
    5.2684   17.6822    8.0518 C   0  0  0  0  0  0
    5.8665   15.8570    9.6468 N   0  0  0  0  0  0
    5.6602   18.6826    9.1321 C   0  0  0  0  0  0
    4.7676   18.9981   10.1786 C   0  0  0  0  0  0
    5.1522   19.9010   11.1890 C   0  0  0  0  0  0
    6.4174   20.5142   11.1452 C   0  0  0  0  0  0
    7.3019   20.2204   10.0904 C   0  0  0  0  0  0
    6.9272   19.3043    9.0896 C   0  0  0  0  0  0
    5.4389   15.7478   10.9593 C   0  0  0  0  0  0
    6.4907   15.4234   11.7247 O   0  0  0  0  0  0
    4.2978   15.9437   11.3799 O   0  0  0  0  0  0
    6.3645   15.4432   13.1417 C   0  0  2  0  0  0
    7.7475   15.4665   13.7967 C   0  0  0  0  0  0
    7.6060   14.6550   14.9526 O   0  0  0  0  0  0
    6.7689   13.5631   14.6090 C   0  0  0  0  0  0
    5.7122   14.1735   13.6910 C   0  0  0  0  0  0
    9.5273   17.8413   11.5761 H   0  0  0  0  0  0
   11.4200   19.2185    7.9487 H   0  0  0  0  0  0
   10.6226   17.2025    6.7534 H   0  0  0  0  0  0
    8.7469   15.8064   10.3909 H   0  0  0  0  0  0
   11.1673   20.6039    9.8629 H   0  0  0  0  0  0
   10.5150   20.0896   11.3468 H   0  0  0  0  0  0
    6.6803   16.6240    5.5665 H   0  0  0  0  0  0
    8.4044   16.7374    5.6762 H   0  0  0  0  0  0
    8.0705   14.1315    4.7071 H   0  0  0  0  0  0
    8.3687   16.6423    3.0043 H   0  0  0  0  0  0
    9.6772   15.8348    3.8664 H   0  0  0  0  0  0
    8.8545   15.0242    2.5489 H   0  0  0  0  0  0
    5.9132   15.8536    3.3683 H   0  0  0  0  0  0
    6.3685   14.2249    2.8862 H   0  0  0  0  0  0
    5.5838   14.4900    4.4230 H   0  0  0  0  0  0
    6.3292   13.6714    6.4294 H   0  0  0  0  0  0
    6.5754   13.8465    8.1258 H   0  0  0  0  0  0
    4.8243   15.6929    6.4326 H   0  0  0  0  0  0
    4.0367   13.6657    6.7974 H   0  0  0  0  0  0
    3.9676   16.2372    8.8983 H   0  0  0  0  0  0
    6.0810   17.6792    7.3326 H   0  0  0  0  0  0
    4.4005   18.0624    7.5109 H   0  0  0  0  0  0
    6.8420   15.6795    9.4665 H   0  0  0  0  0  0
    3.7942   18.5312   10.2196 H   0  0  0  0  0  0
    4.4709   20.1273   11.9939 H   0  0  0  0  0  0
    6.7072   21.2141   11.9142 H   0  0  0  0  0  0
    8.2693   20.6994   10.0398 H   0  0  0  0  0  0
    7.6233   19.0906    8.2894 H   0  0  0  0  0  0
    5.7995   16.3179   13.4678 H   0  0  0  0  0  0
    8.5008   15.0264   13.1421 H   0  0  0  0  0  0
    8.0717   16.4764   14.0488 H   0  0  0  0  0  0
    6.3362   13.0991   15.4947 H   0  0  0  0  0  0
    7.3514   12.8034   14.0865 H   0  0  0  0  0  0
    4.8237   14.4423   14.2645 H   0  0  0  0  0  0
    5.4039   13.4755   12.9115 H   0  0  0  0  0  0
  1  2  2  0  0  0
  1  6  1  0  0  0
  1 36  1  0  0  0
  2  3  1  0  0  0
  2  7  1  0  0  0
  3  4  2  0  0  0
  3 37  1  0  0  0
  4  5  1  0  0  0
  4 38  1  0  0  0
  5  6  2  0  0  0
  5  8  1  0  0  0
  6 39  1  0  0  0
  7 40  1  0  0  0
  7 41  1  0  0  0
  8  9  2  0  0  0
  8 10  2  0  0  0
  8 11  1  0  0  0
 11 12  1  0  0  0
 11 16  1  0  0  0
 12 13  1  0  0  0
 12 42  1  0  0  0
 12 43  1  0  0  0
 13 14  1  0  0  0
 13 15  1  0  0  0
 13 44  1  0  0  0
 14 45  1  0  0  0
 14 46  1  0  0  0
 14 47  1  0  0  0
 15 48  1  0  0  0
 15 49  1  0  0  0
 15 50  1  0  0  0
 16 17  1  0  0  0
 16 51  1  0  0  0
 16 52  1  0  0  0
 17 18  1  0  0  0
 17 19  1  0  0  0
 17 53  1  0  0  0
 18 54  1  0  0  0
 19 20  1  0  0  0
 19 21  1  0  0  0
 19 55  1  0  0  0
 20 22  1  0  0  0
 20 56  1  0  0  0
 20 57  1  0  0  0
 21 28  1  0  0  0
 21 58  1  0  0  0
 22 23  2  0  0  0
 22 27  1  0  0  0
 23 24  1  0  0  0
 23 59  1  0  0  0
 24 25  2  0  0  0
 24 60  1  0  0  0
 25 26  1  0  0  0
 25 61  1  0  0  0
 26 27  2  0  0  0
 26 62  1  0  0  0
 27 63  1  0  0  0
 28 29  1  0  0  0
 28 30  2  0  0  0
 29 31  1  0  0  0
 31 32  1  0  0  0
 31 35  1  0  0  0
 31 64  1  0  0  0
 32 33  1  0  0  0
 32 65  1  0  0  0
 32 66  1  0  0  0
 33 34  1  0  0  0
 34 35  1  0  0  0
 34 67  1  0  0  0
 34 68  1  0  0  0
 35 69  1  0  0  0
 35 70  1  0  0  0
M  END
> <Tot Q>
0

> <flags>
0

> <subgroup collapsed>
0

> <Ionization Penalty>
0

> <State Penalty>
0

> <docking score>
-3.15485

> <glide emodel>
-37.1232

> <glide gscore>
-3.15485

> <tautomer probability>
1

> <entry id>
32

> <subgroup title>
glide-dock_SP_P04587_I47V_pv

> <subgroupid>
glide-dock_SP_P04587_I47V_pv

$$$$
