agenerase.sdf
                    3D
 Schrodinger Suite 2024-1.
 70 72  0  0  1  0            999 V2000
    5.6170   14.6280   12.8556 C   0  0  0  0  0  0
    4.4356   14.0996   12.2970 C   0  0  0  0  0  0
    3.4705   14.9661   11.7469 C   0  0  0  0  0  0
    3.6883   16.3585   11.7464 C   0  0  0  0  0  0
    4.8886   16.8769   12.2752 C   0  0  0  0  0  0
    5.8494   16.0165   12.8406 C   0  0  0  0  0  0
    4.2210   12.7231   12.2918 N   0  0  0  0  0  0
    5.2047   18.6405   12.2382 S   0  0  0  0  0  0
    3.9605   19.3289   11.8612 O   0  0  0  0  0  0
    5.8828   19.0024   13.4927 O   0  0  0  0  0  0
    6.3536   18.8219   10.9371 N   0  0  0  0  0  0
    7.7521   18.3848   11.1723 C   0  0  0  0  0  0
    8.8120   19.0960   10.2971 C   0  0  0  0  0  0
   10.2023   18.4841   10.5182 C   0  0  0  0  0  0
    8.8397   20.6050   10.5697 C   0  0  0  0  0  0
    5.8591   18.9670    9.5432 C   0  0  0  0  0  0
    5.4753   17.6314    8.8602 C   0  0  1  0  0  0
    4.5724   17.9715    7.8242 O   0  0  0  0  0  0
    6.6660   16.7964    8.2923 C   0  0  2  0  0  0
    7.1444   17.2148    6.8840 C   0  0  0  0  0  0
    6.4292   15.3586    8.4328 N   0  0  0  0  0  0
    8.4097   16.5228    6.4072 C   0  0  0  0  0  0
    9.6730   17.0458    6.7561 C   0  0  0  0  0  0
   10.8477   16.4366    6.2755 C   0  0  0  0  0  0
   10.7651   15.3055    5.4414 C   0  0  0  0  0  0
    9.5066   14.7838    5.0867 C   0  0  0  0  0  0
    8.3305   15.3886    5.5713 C   0  0  0  0  0  0
    5.4700   14.6497    7.7328 C   0  0  0  0  0  0
    5.4102   13.4078    8.2312 O   0  0  0  0  0  0
    4.7584   15.0719    6.8236 O   0  0  0  0  0  0
    4.2960   12.5808    7.9114 C   0  0  2  0  0  0
    4.2580   11.3941    8.8835 C   0  0  0  0  0  0
    4.3212   10.2230    8.0794 O   0  0  0  0  0  0
    4.9802   10.5459    6.8687 C   0  0  0  0  0  0
    4.4352   11.9255    6.5414 C   0  0  0  0  0  0
    6.3538   13.9700   13.2908 H   0  0  0  0  0  0
    2.5612   14.5667   11.3218 H   0  0  0  0  0  0
    2.9485   17.0182   11.3164 H   0  0  0  0  0  0
    6.7601   16.4178   13.2601 H   0  0  0  0  0  0
    3.2966   12.3673   12.0935 H   0  0  0  0  0  0
    4.7941   12.1288   12.8747 H   0  0  0  0  0  0
    8.0060   18.5660   12.2170 H   0  0  0  0  0  0
    7.8107   17.3040   11.0517 H   0  0  0  0  0  0
    8.5925   18.9502    9.2410 H   0  0  0  0  0  0
   10.5311   18.5997   11.5513 H   0  0  0  0  0  0
   10.2062   17.4194   10.2818 H   0  0  0  0  0  0
   10.9426   18.9644    9.8761 H   0  0  0  0  0  0
    9.1106   20.8207   11.6030 H   0  0  0  0  0  0
    9.5560   21.1100    9.9216 H   0  0  0  0  0  0
    7.8605   21.0414   10.3832 H   0  0  0  0  0  0
    4.9759   19.6060    9.5859 H   0  0  0  0  0  0
    6.5564   19.5342    8.9296 H   0  0  0  0  0  0
    4.9109   17.0271    9.5615 H   0  0  0  0  0  0
    5.0378   18.4278    7.1400 H   0  0  0  0  0  0
    7.5195   16.9508    8.9426 H   0  0  0  0  0  0
    6.3556   17.0285    6.1558 H   0  0  0  0  0  0
    7.3307   18.2894    6.8793 H   0  0  0  0  0  0
    6.9228   14.8510    9.1502 H   0  0  0  0  0  0
    9.7457   17.9306    7.3723 H   0  0  0  0  0  0
   11.8131   16.8453    6.5357 H   0  0  0  0  0  0
   11.6666   14.8416    5.0688 H   0  0  0  0  0  0
    9.4467   13.9167    4.4453 H   0  0  0  0  0  0
    7.3677   14.9861    5.2905 H   0  0  0  0  0  0
    3.3699   13.1561    7.9721 H   0  0  0  0  0  0
    5.1107   11.4083    9.5641 H   0  0  0  0  0  0
    3.3501   11.3917    9.4864 H   0  0  0  0  0  0
    4.7579    9.8208    6.0865 H   0  0  0  0  0  0
    6.0574   10.5758    7.0342 H   0  0  0  0  0  0
    3.4468   11.8269    6.0894 H   0  0  0  0  0  0
    5.0659   12.4765    5.8421 H   0  0  0  0  0  0
  1  2  2  0  0  0
  1  6  1  0  0  0
  1 36  1  0  0  0
  2  3  1  0  0  0
  2  7  1  0  0  0
  3  4  2  0  0  0
  3 37  1  0  0  0
  4  5  1  0  0  0
  4 38  1  0  0  0
  5  6  2  0  0  0
  5  8  1  0  0  0
  6 39  1  0  0  0
  7 40  1  0  0  0
  7 41  1  0  0  0
  8  9  2  0  0  0
  8 10  2  0  0  0
  8 11  1  0  0  0
 11 12  1  0  0  0
 11 16  1  0  0  0
 12 13  1  0  0  0
 12 42  1  0  0  0
 12 43  1  0  0  0
 13 14  1  0  0  0
 13 15  1  0  0  0
 13 44  1  0  0  0
 14 45  1  0  0  0
 14 46  1  0  0  0
 14 47  1  0  0  0
 15 48  1  0  0  0
 15 49  1  0  0  0
 15 50  1  0  0  0
 16 17  1  0  0  0
 16 51  1  0  0  0
 16 52  1  0  0  0
 17 18  1  0  0  0
 17 19  1  0  0  0
 17 53  1  0  0  0
 18 54  1  0  0  0
 19 20  1  0  0  0
 19 21  1  0  0  0
 19 55  1  0  0  0
 20 22  1  0  0  0
 20 56  1  0  0  0
 20 57  1  0  0  0
 21 28  1  0  0  0
 21 58  1  0  0  0
 22 23  2  0  0  0
 22 27  1  0  0  0
 23 24  1  0  0  0
 23 59  1  0  0  0
 24 25  2  0  0  0
 24 60  1  0  0  0
 25 26  1  0  0  0
 25 61  1  0  0  0
 26 27  2  0  0  0
 26 62  1  0  0  0
 27 63  1  0  0  0
 28 29  1  0  0  0
 28 30  2  0  0  0
 29 31  1  0  0  0
 31 32  1  0  0  0
 31 35  1  0  0  0
 31 64  1  0  0  0
 32 33  1  0  0  0
 32 65  1  0  0  0
 32 66  1  0  0  0
 33 34  1  0  0  0
 34 35  1  0  0  0
 34 67  1  0  0  0
 34 68  1  0  0  0
 35 69  1  0  0  0
 35 70  1  0  0  0
M  END
> <Tot Q>
0

> <flags>
0

> <subgroup collapsed>
0

> <Ionization Penalty>
0

> <State Penalty>
0

> <docking score>
-2.13158

> <glide emodel>
-34.1493

> <glide gscore>
-2.13158

> <tautomer probability>
1

> <entry id>
17

> <subgroup title>
glide-dock_SP_P04587_I50V_pv

> <subgroupid>
glide-dock_SP_P04587_I50V_pv

$$$$
