agenerase.sdf
                    3D
 Schrodinger Suite 2024-1.
 70 72  0  0  1  0            999 V2000
   15.2086  -22.7658  -16.0005 C   0  0  0  0  0  0
   15.6633  -21.7658  -15.1177 C   0  0  0  0  0  0
   14.7606  -20.8028  -14.6231 C   0  0  0  0  0  0
   13.4116  -20.8214  -15.0293 C   0  0  0  0  0  0
   12.9704  -21.7990  -15.9455 C   0  0  0  0  0  0
   13.8619  -22.7891  -16.4079 C   0  0  0  0  0  0
   17.0010  -21.7300  -14.7344 N   0  0  0  0  0  0
   11.2649  -21.7959  -16.5078 S   0  0  0  0  0  0
   10.7851  -23.1879  -16.4813 O   0  0  0  0  0  0
   10.5421  -20.7428  -15.7800 O   0  0  0  0  0  0
   11.3351  -21.2835  -18.1641 N   0  0  0  0  0  0
   10.9957  -19.8988  -18.5427 C   0  0  0  0  0  0
   12.2262  -19.0384  -18.8757 C   0  0  0  0  0  0
   13.2243  -18.8810  -17.7228 C   0  0  0  0  0  0
   11.7799  -17.6490  -19.3559 C   0  0  0  0  0  0
   11.8405  -22.1674  -19.2249 C   0  0  0  0  0  0
   10.7824  -23.2099  -19.6530 C   0  0  1  0  0  0
    9.8568  -22.5268  -20.4669 O   0  0  0  0  0  0
   11.3033  -24.4278  -20.4713 C   0  0  2  0  0  0
   10.2773  -25.5821  -20.5795 C   0  0  0  0  0  0
   12.5813  -24.9282  -19.9610 N   0  0  0  0  0  0
    9.7283  -26.0925  -19.2521 C   0  0  0  0  0  0
   10.4056  -27.0946  -18.5282 C   0  0  0  0  0  0
    9.8642  -27.5904  -17.3234 C   0  0  0  0  0  0
    8.6595  -27.0664  -16.8205 C   0  0  0  0  0  0
    7.9888  -26.0539  -17.5293 C   0  0  0  0  0  0
    8.5155  -25.5786  -18.7466 C   0  0  0  0  0  0
   13.8061  -24.5439  -20.4832 C   0  0  0  0  0  0
   14.7833  -25.0762  -19.7329 O   0  0  0  0  0  0
   13.9860  -23.7974  -21.4456 O   0  0  0  0  0  0
   16.1274  -24.6602  -19.9501 C   0  0  2  0  0  0
   16.7716  -25.3624  -21.1511 C   0  0  0  0  0  0
   18.1216  -25.5440  -20.7563 O   0  0  0  0  0  0
   18.1041  -25.9293  -19.3905 C   0  0  0  0  0  0
   17.0153  -25.0498  -18.7722 C   0  0  0  0  0  0
   15.8866  -23.5240  -16.3635 H   0  0  0  0  0  0
   15.0989  -20.0414  -13.9346 H   0  0  0  0  0  0
   12.7288  -20.0730  -14.6563 H   0  0  0  0  0  0
   13.5216  -23.5720  -17.0688 H   0  0  0  0  0  0
   17.3761  -20.8719  -14.3587 H   0  0  0  0  0  0
   17.6675  -22.2834  -15.2498 H   0  0  0  0  0  0
   10.3404  -19.9399  -19.4136 H   0  0  0  0  0  0
   10.4034  -19.4190  -17.7653 H   0  0  0  0  0  0
   12.7454  -19.5511  -19.6809 H   0  0  0  0  0  0
   12.7324  -18.5646  -16.8028 H   0  0  0  0  0  0
   13.7539  -19.8131  -17.5440 H   0  0  0  0  0  0
   13.9896  -18.1434  -17.9664 H   0  0  0  0  0  0
   11.1476  -17.1566  -18.6159 H   0  0  0  0  0  0
   12.6382  -16.9992  -19.5333 H   0  0  0  0  0  0
   11.2198  -17.7174  -20.2898 H   0  0  0  0  0  0
   12.1761  -21.5931  -20.0811 H   0  0  0  0  0  0
   12.7368  -22.6384  -18.8413 H   0  0  0  0  0  0
   10.2529  -23.5618  -18.7777 H   0  0  0  0  0  0
   10.3076  -22.2073  -21.2326 H   0  0  0  0  0  0
   11.4792  -24.0899  -21.4946 H   0  0  0  0  0  0
    9.4379  -25.2492  -21.1908 H   0  0  0  0  0  0
   10.7157  -26.4190  -21.1239 H   0  0  0  0  0  0
   12.5967  -25.5311  -19.1519 H   0  0  0  0  0  0
   11.3274  -27.5103  -18.9075 H   0  0  0  0  0  0
   10.3785  -28.3722  -16.7845 H   0  0  0  0  0  0
    8.2538  -27.4438  -15.8934 H   0  0  0  0  0  0
    7.0651  -25.6478  -17.1454 H   0  0  0  0  0  0
    7.9913  -24.8062  -19.2885 H   0  0  0  0  0  0
   16.1804  -23.5778  -20.0785 H   0  0  0  0  0  0
   16.3192  -26.3411  -21.3237 H   0  0  0  0  0  0
   16.6861  -24.7813  -22.0697 H   0  0  0  0  0  0
   19.0766  -25.7812  -18.9202 H   0  0  0  0  0  0
   17.8429  -26.9875  -19.3065 H   0  0  0  0  0  0
   17.4558  -24.1524  -18.3341 H   0  0  0  0  0  0
   16.4744  -25.5726  -17.9813 H   0  0  0  0  0  0
  1  2  2  0  0  0
  1  6  1  0  0  0
  1 36  1  0  0  0
  2  3  1  0  0  0
  2  7  1  0  0  0
  3  4  2  0  0  0
  3 37  1  0  0  0
  4  5  1  0  0  0
  4 38  1  0  0  0
  5  6  2  0  0  0
  5  8  1  0  0  0
  6 39  1  0  0  0
  7 40  1  0  0  0
  7 41  1  0  0  0
  8  9  2  0  0  0
  8 10  2  0  0  0
  8 11  1  0  0  0
 11 12  1  0  0  0
 11 16  1  0  0  0
 12 13  1  0  0  0
 12 42  1  0  0  0
 12 43  1  0  0  0
 13 14  1  0  0  0
 13 15  1  0  0  0
 13 44  1  0  0  0
 14 45  1  0  0  0
 14 46  1  0  0  0
 14 47  1  0  0  0
 15 48  1  0  0  0
 15 49  1  0  0  0
 15 50  1  0  0  0
 16 17  1  0  0  0
 16 51  1  0  0  0
 16 52  1  0  0  0
 17 18  1  0  0  0
 17 19  1  0  0  0
 17 53  1  0  0  0
 18 54  1  0  0  0
 19 20  1  0  0  0
 19 21  1  0  0  0
 19 55  1  0  0  0
 20 22  1  0  0  0
 20 56  1  0  0  0
 20 57  1  0  0  0
 21 28  1  0  0  0
 21 58  1  0  0  0
 22 23  2  0  0  0
 22 27  1  0  0  0
 23 24  1  0  0  0
 23 59  1  0  0  0
 24 25  2  0  0  0
 24 60  1  0  0  0
 25 26  1  0  0  0
 25 61  1  0  0  0
 26 27  2  0  0  0
 26 62  1  0  0  0
 27 63  1  0  0  0
 28 29  1  0  0  0
 28 30  2  0  0  0
 29 31  1  0  0  0
 31 32  1  0  0  0
 31 35  1  0  0  0
 31 64  1  0  0  0
 32 33  1  0  0  0
 32 65  1  0  0  0
 32 66  1  0  0  0
 33 34  1  0  0  0
 34 35  1  0  0  0
 34 67  1  0  0  0
 34 68  1  0  0  0
 35 69  1  0  0  0
 35 70  1  0  0  0
M  END
> <i_epik_Tot_Q>
0

> <i_epik_Tot_abs_Q>
0

> <i_f3d_flags>
0

> <i_i_glide_confnum>
426

> <i_i_glide_lignum>
1

> <i_i_glide_posenum>
123

> <i_i_glide_rotatable_bonds>
14

> <i_lp_mmshare_version>
65135

> <i_m_Source_File_Index>
1

> <i_m_source_file_index>
1

> <b_lp_Chiralities_Consistent>
1

> <b_m_subgroup_collapsed>
0

> <r_epik_Charging_Adjusted_Penalty>
0

> <r_epik_Ionization_Penalty>
0

> <r_epik_Ionization_Penalty_Charging>
0

> <r_epik_Ionization_Penalty_Neutral>
0

> <r_epik_State_Penalty>
0

> <r_i_docking_score>
-4.48354

> <r_i_glide_ecoul>
-6.40258

> <r_i_glide_eff_state_penalty>
0

> <r_i_glide_einternal>
9.97208

> <r_i_glide_emodel>
-49.8024

> <r_i_glide_energy>
-43.4603

> <r_i_glide_erotb>
0.800072

> <r_i_glide_esite>
-0.090794

> <r_i_glide_evdw>
-37.0577

> <r_i_glide_gscore>
-4.48354

> <r_i_glide_hbond>
-0.154784

> <r_i_glide_ligand_efficiency>
-0.128101

> <r_i_glide_ligand_efficiency_ln>
-0.984238

> <r_i_glide_ligand_efficiency_sa>
-0.419028

> <r_i_glide_lipo>
-2.27489

> <r_i_glide_metal>
0

> <r_i_glide_rewards>
0.0501226

> <r_lp_Energy>
19.4315

> <r_lp_tautomer_probability>
1

> <s_epik_Chemistry_Notes>
This compound has an ester and may undergo hydrolysis at high or low pH.

> <s_epik_cmdline>
J2VwaWtfcHl0aG9uJywgJy1waCcsICc3LjAnLCAnLXRuJywgJzgnLCAnLW1hJywgJzUwMCcsICctaW1hZScsICc8aW5maWxlLm1hZT4nLCAnLW9tYWUnLCAnPG91dGZpbGUubWFlPic=

> <s_epik_input>
W05IMl1jMVtjSF1bY0hdYyhbY0hdW2NIXTEpUyg9TykoPU8pTihbQ0gyXVtDSF0oW0NIM10pW0NIM10pW0NIMl1bQ0BASF0oW09IXSlbQ0BIXShbQ0gyXWMyW2NIXVtjSF1bY0hdW2NIXVtjSF0yKVtOSF1DKD1PKU9bQ0BASF0zW0NIMl1PW0NIMl1bQ0gyXTM=

> <s_i_glide_gridfile>
glide-grid_P04587_L10F_I50V

> <s_lp_Force_Field>
S-OPLS

> <s_lp_Variant>
agenerase.sdf-1

> <s_m_Source_File>
glide-dock_SP_P04587_L10F_I50V_pv.maegz

> <s_m_Source_Path>
D:\project\glide-dock_SP_P04587_L10F_I50V

> <s_m_entry_id>
400

> <s_m_entry_name>
agenerase.1

> <s_m_job_name>
glide-dock_SP_P04587_L10F_I50V

> <s_m_source_file>
ligprep_Agenerase.maegz

> <s_m_subgroup_title>
glide-dock_SP_P04587_L10F_I50V_pv

> <s_m_subgroupid>
glide-dock_SP_P04587_L10F_I50V_pv

$$$$
