agenerase.sdf
                    3D
 Schrodinger Suite 2024-1.
 70 72  0  0  1  0            999 V2000
    9.6096  -16.0763  -18.7262 C   0  0  0  0  0  0
   10.9847  -16.1493  -19.0246 C   0  0  0  0  0  0
   11.5052  -17.2903  -19.6625 C   0  0  0  0  0  0
   10.6622  -18.3588  -20.0244 C   0  0  0  0  0  0
    9.2880  -18.2768  -19.7329 C   0  0  0  0  0  0
    8.7604  -17.1418  -19.0800 C   0  0  0  0  0  0
   11.8349  -15.0960  -18.6965 N   0  0  0  0  0  0
    8.1709  -19.5782  -20.2415 S   0  0  0  0  0  0
    6.8126  -19.0144  -20.2380 O   0  0  0  0  0  0
    8.7034  -20.1831  -21.4724 O   0  0  0  0  0  0
    8.2894  -20.7591  -18.9551 N   0  0  0  0  0  0
    7.9812  -20.4167  -17.5485 C   0  0  0  0  0  0
    6.5548  -20.7938  -17.0577 C   0  0  0  0  0  0
    6.2828  -22.3017  -16.9196 C   0  0  0  0  0  0
    5.4190  -20.1016  -17.8205 C   0  0  0  0  0  0
    8.8217  -22.1080  -19.2237 C   0  0  0  0  0  0
   10.3180  -22.2869  -18.8762 C   0  0  1  0  0  0
   10.4142  -23.0239  -17.6661 O   0  0  0  0  0  0
   11.1162  -23.0341  -19.9872 C   0  0  2  0  0  0
   10.4957  -24.3685  -20.5091 C   0  0  0  0  0  0
   12.4881  -23.2546  -19.5339 N   0  0  0  0  0  0
   10.4217  -25.4982  -19.4903 C   0  0  0  0  0  0
    9.2165  -25.7570  -18.8016 C   0  0  0  0  0  0
    9.1548  -26.7814  -17.8363 C   0  0  0  0  0  0
   10.2927  -27.5660  -17.5690 C   0  0  0  0  0  0
   11.4872  -27.3349  -18.2813 C   0  0  0  0  0  0
   11.5519  -26.3045  -19.2370 C   0  0  0  0  0  0
   13.5815  -23.3471  -20.3750 C   0  0  0  0  0  0
   14.6399  -23.7306  -19.6417 O   0  0  0  0  0  0
   13.5905  -23.1508  -21.5892 O   0  0  0  0  0  0
   15.9381  -23.8043  -20.2213 C   0  0  2  0  0  0
   16.0968  -24.9145  -21.2641 C   0  0  0  0  0  0
   17.4275  -25.3733  -21.0816 O   0  0  0  0  0  0
   17.6526  -25.4231  -19.6838 C   0  0  0  0  0  0
   16.9712  -24.1618  -19.1541 C   0  0  0  0  0  0
    9.2047  -15.2061  -18.2294 H   0  0  0  0  0  0
   12.5628  -17.3356  -19.8821 H   0  0  0  0  0  0
   11.0694  -19.2228  -20.5297 H   0  0  0  0  0  0
    7.7060  -17.0870  -18.8531 H   0  0  0  0  0  0
   12.8337  -15.1966  -18.8248 H   0  0  0  0  0  0
   11.5299  -14.3372  -18.1035 H   0  0  0  0  0  0
    8.7253  -20.8839  -16.9011 H   0  0  0  0  0  0
    8.1209  -19.3444  -17.4139 H   0  0  0  0  0  0
    6.5041  -20.3996  -16.0420 H   0  0  0  0  0  0
    6.1311  -22.7805  -17.8830 H   0  0  0  0  0  0
    7.0944  -22.8202  -16.4153 H   0  0  0  0  0  0
    5.3765  -22.4768  -16.3391 H   0  0  0  0  0  0
    5.3220  -20.5011  -18.8300 H   0  0  0  0  0  0
    4.4626  -20.2571  -17.3202 H   0  0  0  0  0  0
    5.5799  -19.0249  -17.8854 H   0  0  0  0  0  0
    8.2120  -22.8585  -18.7289 H   0  0  0  0  0  0
    8.6873  -22.2935  -20.2819 H   0  0  0  0  0  0
   10.7797  -21.3105  -18.7150 H   0  0  0  0  0  0
   10.1635  -23.9176  -17.8569 H   0  0  0  0  0  0
   11.1530  -22.3546  -20.8417 H   0  0  0  0  0  0
    9.5013  -24.2105  -20.9250 H   0  0  0  0  0  0
   11.0854  -24.7254  -21.3555 H   0  0  0  0  0  0
   12.6535  -23.4259  -18.5530 H   0  0  0  0  0  0
    8.3339  -25.1698  -19.0063 H   0  0  0  0  0  0
    8.2338  -26.9689  -17.3041 H   0  0  0  0  0  0
   10.2505  -28.3513  -16.8260 H   0  0  0  0  0  0
   12.3577  -27.9454  -18.0831 H   0  0  0  0  0  0
   12.4764  -26.1308  -19.7688 H   0  0  0  0  0  0
   16.2000  -22.8544  -20.6782 H   0  0  0  0  0  0
   15.4064  -25.7361  -21.0702 H   0  0  0  0  0  0
   15.9218  -24.5444  -22.2733 H   0  0  0  0  0  0
   18.7165  -25.4550  -19.4480 H   0  0  0  0  0  0
   17.1823  -26.3193  -19.2758 H   0  0  0  0  0  0
   17.6942  -23.3541  -19.0459 H   0  0  0  0  0  0
   16.5257  -24.3369  -18.1737 H   0  0  0  0  0  0
  1  2  2  0  0  0
  1  6  1  0  0  0
  1 36  1  0  0  0
  2  3  1  0  0  0
  2  7  1  0  0  0
  3  4  2  0  0  0
  3 37  1  0  0  0
  4  5  1  0  0  0
  4 38  1  0  0  0
  5  6  2  0  0  0
  5  8  1  0  0  0
  6 39  1  0  0  0
  7 40  1  0  0  0
  7 41  1  0  0  0
  8  9  2  0  0  0
  8 10  2  0  0  0
  8 11  1  0  0  0
 11 12  1  0  0  0
 11 16  1  0  0  0
 12 13  1  0  0  0
 12 42  1  0  0  0
 12 43  1  0  0  0
 13 14  1  0  0  0
 13 15  1  0  0  0
 13 44  1  0  0  0
 14 45  1  0  0  0
 14 46  1  0  0  0
 14 47  1  0  0  0
 15 48  1  0  0  0
 15 49  1  0  0  0
 15 50  1  0  0  0
 16 17  1  0  0  0
 16 51  1  0  0  0
 16 52  1  0  0  0
 17 18  1  0  0  0
 17 19  1  0  0  0
 17 53  1  0  0  0
 18 54  1  0  0  0
 19 20  1  0  0  0
 19 21  1  0  0  0
 19 55  1  0  0  0
 20 22  1  0  0  0
 20 56  1  0  0  0
 20 57  1  0  0  0
 21 28  1  0  0  0
 21 58  1  0  0  0
 22 23  2  0  0  0
 22 27  1  0  0  0
 23 24  1  0  0  0
 23 59  1  0  0  0
 24 25  2  0  0  0
 24 60  1  0  0  0
 25 26  1  0  0  0
 25 61  1  0  0  0
 26 27  2  0  0  0
 26 62  1  0  0  0
 27 63  1  0  0  0
 28 29  1  0  0  0
 28 30  2  0  0  0
 29 31  1  0  0  0
 31 32  1  0  0  0
 31 35  1  0  0  0
 31 64  1  0  0  0
 32 33  1  0  0  0
 32 65  1  0  0  0
 32 66  1  0  0  0
 33 34  1  0  0  0
 34 35  1  0  0  0
 34 67  1  0  0  0
 34 68  1  0  0  0
 35 69  1  0  0  0
 35 70  1  0  0  0
M  END
> <Tot Q>
0

> <flags>
0

> <subgroup collapsed>
0

> <Ionization Penalty>
0

> <State Penalty>
0

> <docking score>
-3.89187

> <glide emodel>
-40.3381

> <glide gscore>
-3.89187

> <tautomer probability>
1

> <entry id>
23

> <subgroup title>
glide-dock_SP_P04587_V82F_I84V_pv

> <subgroupid>
glide-dock_SP_P04587_V82F_I84V_pv

$$$$
