lig_tnks2_5i
                    3D
 Schrodinger Suite 2024-1.
 40 42  0  0  1  0            999 V2000
  -41.1274  -15.0249   13.3352 C   0  0  0  0  0  0
  -40.3161  -14.1318   14.2649 C   0  0  0  0  0  0
  -40.3287  -14.4103   15.6337 C   0  0  0  0  0  0
  -39.5952  -13.6248   16.5201 C   0  0  0  0  0  0
  -38.8219  -12.5603   16.0602 C   0  0  0  0  0  0
  -38.8195  -12.2709   14.6945 C   0  0  0  0  0  0
  -38.0007  -11.1348   14.1422 C   0  0  0  0  0  0
  -37.2202  -10.4268   14.7752 O   0  0  0  0  0  0
  -38.1734  -10.9762   12.8103 N   0  0  0  0  0  0
  -38.9331  -11.7195   11.9406 C   0  0  0  0  0  0
  -38.9703  -11.3487   10.5147 C   0  0  0  0  0  0
  -38.7940  -10.0191   10.1081 C   0  0  0  0  0  0
  -38.9590   -9.6670    8.7727 C   0  0  0  0  0  0
  -39.2944  -10.6345    7.8155 C   0  0  0  0  0  0
  -39.5745  -10.2444    6.3505 C   0  0  0  0  0  0
  -40.1730   -8.8253    6.2204 C   0  0  0  0  0  0
  -38.3025  -10.4258    5.5025 C   0  0  0  0  0  0
  -40.5732  -11.0505    5.7549 O   0  0  0  0  0  0
  -39.3736  -11.9744    8.2101 C   0  0  0  0  0  0
  -39.2319  -12.3275    9.5473 C   0  0  0  0  0  0
  -39.5802  -12.7225   12.4237 N   0  0  0  0  0  0
  -39.5577  -13.0448   13.7930 C   0  0  0  0  0  0
  -37.5629  -10.2707   12.4219 H   0  0  0  0  0  0
  -41.2388  -16.0304   13.7432 H   0  0  0  0  0  0
  -42.1185  -14.6008   13.1733 H   0  0  0  0  0  0
  -40.6259  -15.1418   12.3736 H   0  0  0  0  0  0
  -40.9176  -15.2307   16.0189 H   0  0  0  0  0  0
  -39.6275  -13.8544   17.5725 H   0  0  0  0  0  0
  -38.2493  -11.9703   16.7640 H   0  0  0  0  0  0
  -38.5738   -9.2324   10.8163 H   0  0  0  0  0  0
  -38.8562   -8.6268    8.5048 H   0  0  0  0  0  0
  -39.4290   -8.0550    6.4208 H   0  0  0  0  0  0
  -40.9731   -8.6759    6.9393 H   0  0  0  0  0  0
  -40.5737   -8.6186    5.2253 H   0  0  0  0  0  0
  -37.4913   -9.7914    5.8637 H   0  0  0  0  0  0
  -37.9523  -11.4583    5.5299 H   0  0  0  0  0  0
  -38.4750  -10.1761    4.4552 H   0  0  0  0  0  0
  -41.4031  -10.5637    5.8178 H   0  0  0  0  0  0
  -39.6097  -12.7421    7.4875 H   0  0  0  0  0  0
  -39.3649  -13.3637    9.8286 H   0  0  0  0  0  0
  1  2  1  0  0  0
  1 24  1  0  0  0
  1 25  1  0  0  0
  1 26  1  0  0  0
  2 22  1  0  0  0
  2  3  2  0  0  0
  3  4  1  0  0  0
  3 27  1  0  0  0
  4  5  2  0  0  0
  4 28  1  0  0  0
  5  6  1  0  0  0
  5 29  1  0  0  0
  6 22  2  0  0  0
  6  7  1  0  0  0
  7  8  2  0  0  0
  7  9  1  0  0  0
  9 23  1  0  0  0
  9 10  1  0  0  0
 10 11  1  0  0  0
 10 21  2  0  0  0
 11 20  1  0  0  0
 11 12  2  0  0  0
 12 13  1  0  0  0
 12 30  1  0  0  0
 13 14  2  0  0  0
 13 31  1  0  0  0
 14 15  1  0  0  0
 14 19  1  0  0  0
 15 16  1  0  0  0
 15 17  1  0  0  0
 15 18  1  0  0  0
 16 32  1  0  0  0
 16 33  1  0  0  0
 16 34  1  0  0  0
 17 35  1  0  0  0
 17 36  1  0  0  0
 17 37  1  0  0  0
 18 38  1  0  0  0
 19 20  2  0  0  0
 19 39  1  0  0  0
 20 40  1  0  0  0
 21 22  1  0  0  0
M  END
> <Tot Q>
0

> <Source File Index>
1

> <i_f3d_flags>
0

> <subgroup collapsed>
0

> <Ionization Penalty>
0.0046

> <State Penalty>
0.051

> <docking score>
-12.4225

> <glide emodel>
-91.3786

> <glide gscore>
-12.4735

> <tautomer probability>
0.883938

> <Source File>
tnks2tnks2_dock_SP_confgen_100_lib.maegz

> <Source Path>
C:\Users\yujie\Desktop\FEPs

> <entry id>
6143

> <subgroup title>
tnks2tnks2_dock_SP_confgen_100_lib

> <subgroupid>
tnks2tnks2_dock_SP_confgen_100_lib

$$$$
