lig_tnks2_5n
                    3D
 Schrodinger Suite 2020-3.
 44 46  0  0  1  0            999 V2000
  -37.3735   -9.8228    6.0961 C   0  0  0  0  0  0
  -38.6319  -10.6402    6.4262 C   0  0  0  0  0  0
  -39.9279   -9.9226    5.9981 C   0  0  0  0  0  0
  -38.5115  -11.9066    5.7430 O   0  0  0  0  0  0
  -38.0566  -12.0410    4.3831 C   0  0  0  0  0  0
  -39.1232  -11.7081    3.3288 C   0  0  0  0  0  0
  -38.7959  -12.3022    2.0874 O   0  0  0  0  0  0
  -38.7118  -10.9344    7.9415 C   0  0  0  0  0  0
  -39.2760  -12.1338    8.3769 C   0  0  0  0  0  0
  -39.3484  -12.4338    9.7296 C   0  0  0  0  0  0
  -38.8763  -11.5338   10.6938 C   0  0  0  0  0  0
  -38.9652  -11.8949   12.1256 C   0  0  0  0  0  0
  -39.7238  -12.8475   12.5465 N   0  0  0  0  0  0
  -39.7647  -13.2258   13.8894 C   0  0  0  0  0  0
  -40.5875  -14.2918   14.2443 C   0  0  0  0  0  0
  -40.7149  -14.6474   15.5878 C   0  0  0  0  0  0
  -40.0166  -13.9430   16.5712 C   0  0  0  0  0  0
  -40.1739  -14.2921   17.8674 F   0  0  0  0  0  0
  -39.1668  -12.8872   16.2160 C   0  0  0  0  0  0
  -39.0488  -12.5334   14.8661 C   0  0  0  0  0  0
  -38.1386  -11.4208   14.4053 C   0  0  0  0  0  0
  -37.3732  -10.7706   15.1148 O   0  0  0  0  0  0
  -38.2017  -11.2270   13.0631 N   0  0  0  0  0  0
  -38.3318  -10.3162   10.2666 C   0  0  0  0  0  0
  -38.2611  -10.0185    8.9073 C   0  0  0  0  0  0
  -37.5498  -10.5304   12.7353 H   0  0  0  0  0  0
  -37.3283   -8.8557    6.5943 H   0  0  0  0  0  0
  -36.5173  -10.4256    6.3732 H   0  0  0  0  0  0
  -37.2778   -9.6257    5.0351 H   0  0  0  0  0  0
  -40.0839   -9.0112    6.5782 H   0  0  0  0  0  0
  -39.9346   -9.6338    4.9516 H   0  0  0  0  0  0
  -40.7975  -10.5595    6.1562 H   0  0  0  0  0  0
  -37.7732  -13.0880    4.2797 H   0  0  0  0  0  0
  -37.1192  -11.5266    4.1786 H   0  0  0  0  0  0
  -39.2198  -10.6321    3.1946 H   0  0  0  0  0  0
  -40.0968  -12.0781    3.6529 H   0  0  0  0  0  0
  -39.4862  -12.0973    1.4522 H   0  0  0  0  0  0
  -39.6624  -12.8465    7.6642 H   0  0  0  0  0  0
  -39.7736  -13.3862   10.0188 H   0  0  0  0  0  0
  -41.1389  -14.8176   13.4802 H   0  0  0  0  0  0
  -41.3692  -15.4575   15.8750 H   0  0  0  0  0  0
  -38.6217  -12.3517   16.9818 H   0  0  0  0  0  0
  -37.9612   -9.5855   10.9719 H   0  0  0  0  0  0
  -37.8457   -9.0623    8.6292 H   0  0  0  0  0  0
  1  2  1  0  0  0
  1 27  1  0  0  0
  1 28  1  0  0  0
  1 29  1  0  0  0
  2  3  1  0  0  0
  2  4  1  0  0  0
  2  8  1  0  0  0
  3 30  1  0  0  0
  3 31  1  0  0  0
  3 32  1  0  0  0
  4  5  1  0  0  0
  5  6  1  0  0  0
  5 33  1  0  0  0
  5 34  1  0  0  0
  6  7  1  0  0  0
  6 35  1  0  0  0
  6 36  1  0  0  0
  7 37  1  0  0  0
  8 25  1  0  0  0
  8  9  2  0  0  0
  9 10  1  0  0  0
  9 38  1  0  0  0
 10 11  2  0  0  0
 10 39  1  0  0  0
 11 12  1  0  0  0
 11 24  1  0  0  0
 12 23  1  0  0  0
 12 13  2  0  0  0
 13 14  1  0  0  0
 14 20  2  0  0  0
 14 15  1  0  0  0
 15 16  2  0  0  0
 15 40  1  0  0  0
 16 17  1  0  0  0
 16 41  1  0  0  0
 17 18  1  0  0  0
 17 19  2  0  0  0
 19 20  1  0  0  0
 19 42  1  0  0  0
 20 21  1  0  0  0
 21 22  2  0  0  0
 21 23  1  0  0  0
 23 26  1  0  0  0
 24 25  2  0  0  0
 24 43  1  0  0  0
 25 44  1  0  0  0
M  END
> <s_m_source_file>
/home/user-home/yujie/0_PBCNetv2/data/FEP/tnks2/inp_ligprep.csv

> <i_m_source_file_index>
5

> <i_lp_mmshare_version>
51139

> <i_f3d_flags>
0

> <s_epik_input>
W09IXVtDSDJdW0NIMl1PQyhbQ0gzXSkoW0NIM10pYzFbY0hdW2NIXWMoW2NIXVtjSF0xKS1jKG4yKVtuSF1jKD1PKWMoYzIzKVtjSF1jKEYpW2NIXVtjSF0z

> <s_epik_cmdline>
J2VwaWtfcHl0aG9uJywgJy1waHQnLCAnMi4wJywgJy1waCcsICc3LjQnLCAnLXRuJywgJzgnLCAnLW1hJywgJzIwMCcsICctaW1hZScsICc8aW5maWxlLm1hZT4nLCAnLW9tYWUnLCAnPG91dGZpbGUubWFlPic=

> <r_lp_tautomer_probability>
0.883938

> <r_epik_Ionization_Penalty>
  0.0324

> <r_epik_Ionization_Penalty_Charging>
  0.0324

> <r_epik_Ionization_Penalty_Neutral>
  0.0000

> <r_epik_State_Penalty>
  0.0840

> <r_epik_Charging_Adjusted_Penalty>
0.116461

> <i_epik_Tot_Q>
0

> <i_epik_Tot_abs_Q>
0

> <s_lp_Force_Field>
OPLS3e

> <r_lp_Energy>
27.455

> <b_lp_Chiralities_Consistent>
1

> <s_lp_Variant>
lig_tnks2_5n-1

> <s_i_glide_gridfile>
tnks2-001-gridgen

> <i_i_glide_lignum>
13

> <i_i_glide_rotatable_bonds>
6

> <r_i_docking_score>
-10.8780557836162

> <r_i_glide_ligand_efficiency>
-0.435122231344648

> <r_i_glide_ligand_efficiency_sa>
-1.27230512137738

> <r_i_glide_ligand_efficiency_ln>
-2.57842520974318

> <r_i_glide_gscore>
-10.9620669836162

> <r_i_glide_lipo>
-4.43145228957593

> <r_i_glide_hbond>
-0.607910949339194

> <r_i_glide_metal>
-0

> <r_i_glide_rewards>
-3.00914650343021

> <r_i_glide_evdw>
-43.6869964599609

> <r_i_glide_ecoul>
-8.63601493835449

> <r_i_glide_erotb>
0.566194822480351

> <r_i_glide_esite>
0

> <r_i_glide_emodel>
-85.4004513421483

> <r_i_glide_energy>
-52.3230113983154

> <r_i_glide_einternal>
4.13100957870483

> <i_i_glide_confnum>
80

> <i_i_glide_posenum>
300

> <r_i_glide_eff_state_penalty>
0.0840112

$$$$
