lig_tnks2_8d
                    3D
 Schrodinger Suite 2020-3.
 45 48  0  0  1  0            999 V2000
  -41.1659  -15.1982   13.2981 C   0  0  0  0  0  0
  -40.4733  -14.3043   14.3118 C   0  0  0  0  0  0
  -40.6114  -14.5941   15.6720 C   0  0  0  0  0  0
  -39.9810  -13.8085   16.6360 C   0  0  0  0  0  0
  -40.1734  -14.0985   17.9413 F   0  0  0  0  0  0
  -39.1646  -12.7391   16.2563 C   0  0  0  0  0  0
  -39.0199  -12.4455   14.8952 C   0  0  0  0  0  0
  -38.1735  -11.2884   14.3837 C   0  0  0  0  0  0
  -37.4842  -10.6405   15.1726 O   0  0  0  0  0  0
  -38.2253  -11.0601   13.0733 N   0  5  0  0  0  0
  -38.8755  -11.7938   12.2262 C   0  0  0  0  0  0
  -38.8168  -11.4204   10.7710 C   0  0  0  0  0  0
  -39.3723  -12.2763    9.8038 C   0  0  0  0  0  0
  -39.3547  -11.9477    8.4528 C   0  0  0  0  0  0
  -38.7858  -10.7477    8.0208 C   0  0  0  0  0  0
  -38.8197  -10.3911    6.5280 C   0  0  0  0  0  0
  -38.0288  -11.4080    5.6736 C   0  0  0  0  0  0
  -38.2099  -11.2022    4.1649 C   0  0  0  0  0  0
  -39.7125  -11.2740    3.8443 N   0  3  0  0  0  0
  -40.5016  -10.1360    4.5134 C   0  0  0  0  0  0
  -40.2709  -10.1394    6.0397 C   0  0  0  0  0  0
  -38.2103   -9.8908    8.9634 C   0  0  0  0  0  0
  -38.2210  -10.2259   10.3184 C   0  0  0  0  0  0
  -39.5850  -12.8279   12.5676 N   0  0  0  0  0  0
  -39.6873  -13.2059   13.9243 C   0  0  0  0  0  0
  -39.8491  -11.2315    2.8428 H   0  0  0  0  0  0
  -42.1695  -14.8276   13.0924 H   0  0  0  0  0  0
  -40.5861  -15.2370   12.3741 H   0  0  0  0  0  0
  -41.2408  -16.2230   13.6615 H   0  0  0  0  0  0
  -41.2264  -15.4227   15.9910 H   0  0  0  0  0  0
  -38.6735  -12.1399   17.0104 H   0  0  0  0  0  0
  -39.8256  -13.2145   10.0915 H   0  0  0  0  0  0
  -39.8037  -12.6305    7.7466 H   0  0  0  0  0  0
  -38.2908   -9.4383    6.4529 H   0  0  0  0  0  0
  -36.9644  -11.3094    5.8940 H   0  0  0  0  0  0
  -38.3235  -12.4256    5.9187 H   0  0  0  0  0  0
  -37.8497  -10.2319    3.8214 H   0  0  0  0  0  0
  -37.7313  -11.9892    3.5794 H   0  0  0  0  0  0
  -40.1736   -9.2267    4.0210 H   0  0  0  0  0  0
  -41.5528  -10.2892    4.2617 H   0  0  0  0  0  0
  -40.9698  -10.8387    6.4896 H   0  0  0  0  0  0
  -40.5730   -9.1539    6.3998 H   0  0  0  0  0  0
  -37.7603   -8.9583    8.6553 H   0  0  0  0  0  0
  -37.7744   -9.5365   11.0220 H   0  0  0  0  0  0
  -40.0789  -12.1640    4.1523 H   0  0  0  0  0  0
  1  2  1  0  0  0
  1 27  1  0  0  0
  1 28  1  0  0  0
  1 29  1  0  0  0
  2 25  1  0  0  0
  2  3  2  0  0  0
  3  4  1  0  0  0
  3 30  1  0  0  0
  4  5  1  0  0  0
  4  6  2  0  0  0
  6  7  1  0  0  0
  6 31  1  0  0  0
  7 25  2  0  0  0
  7  8  1  0  0  0
  8  9  2  0  0  0
  8 10  1  0  0  0
 10 11  1  0  0  0
 11 12  1  0  0  0
 11 24  2  0  0  0
 12 23  1  0  0  0
 12 13  2  0  0  0
 13 14  1  0  0  0
 13 32  1  0  0  0
 14 15  2  0  0  0
 14 33  1  0  0  0
 15 16  1  0  0  0
 15 22  1  0  0  0
 16 21  1  0  0  0
 16 17  1  0  0  0
 16 34  1  0  0  0
 17 18  1  0  0  0
 17 35  1  0  0  0
 17 36  1  0  0  0
 18 19  1  0  0  0
 18 37  1  0  0  0
 18 38  1  0  0  0
 19 26  1  0  0  0
 19 20  1  0  0  0
 19 45  1  0  0  0
 20 21  1  0  0  0
 20 39  1  0  0  0
 20 40  1  0  0  0
 21 41  1  0  0  0
 21 42  1  0  0  0
 22 23  2  0  0  0
 22 43  1  0  0  0
 23 44  1  0  0  0
 24 25  1  0  0  0
M  CHG  2  10  -1  19   1
M  END
> <s_m_source_file>
/home/user-home/yujie/0_PBCNetv2/data/FEP/tnks2/inp_ligprep.csv

> <i_m_source_file_index>
21

> <i_lp_mmshare_version>
51139

> <i_f3d_flags>
0

> <s_epik_input>
RmMoW2NIXTEpW2NIXWMoW0NIM10pYyhjMTIpbmMoW25IXWMyPU8pLWMzW2NIXVtjSF1jKFtjSF1bY0hdMylbQ0hdNFtDSDJdW0NIMl1bTkhdW0NIMl1bQ0gyXTQ=

> <s_epik_cmdline>
J2VwaWtfcHl0aG9uJywgJy1waHQnLCAnMi4wJywgJy1waCcsICc3LjQnLCAnLXRuJywgJzgnLCAnLW1hJywgJzIwMCcsICctaW1hZScsICc8aW5maWxlLm1hZT4nLCAnLW9tYWUnLCAnPG91dGZpbGUubWFlPic=

> <r_epik_Ionization_Penalty>
  2.6046

> <r_epik_Ionization_Penalty_Charging>
  0.0014

> <r_epik_Ionization_Penalty_Neutral>
  2.6032

> <r_epik_State_Penalty>
  2.0171

> <r_epik_Charging_Adjusted_Penalty>
2.01854

> <i_epik_Tot_Q>
0

> <i_epik_Tot_abs_Q>
2

> <s_lp_Force_Field>
OPLS3e

> <r_lp_Energy>
62.5605

> <b_lp_Chiralities_Consistent>
1

> <s_lp_Variant>
lig_tnks2_8d-3

> <s_i_glide_gridfile>
tnks2-001-gridgen

> <i_i_glide_lignum>
65

> <i_i_glide_rotatable_bonds>
2

> <r_i_docking_score>
-8.18920428271026

> <r_i_glide_ligand_efficiency>
-0.32756817130841

> <r_i_glide_ligand_efficiency_sa>
-0.957815142352046

> <r_i_glide_ligand_efficiency_ln>
-1.94108682565126

> <r_i_glide_gscore>
-10.2063442827103

> <r_i_glide_lipo>
-4.63417434137329

> <r_i_glide_hbond>
-0.443248896663361

> <r_i_glide_metal>
-0

> <r_i_glide_rewards>
-2.30293090946528

> <r_i_glide_evdw>
-43.9077224731445

> <r_i_glide_ecoul>
-6.41764211654663

> <r_i_glide_erotb>
0.332042305930896

> <r_i_glide_esite>
0

> <r_i_glide_emodel>
-81.0599387947693

> <r_i_glide_energy>
-50.3253645896912

> <r_i_glide_einternal>
0.312314480543137

> <i_i_glide_confnum>
4

> <i_i_glide_posenum>
337

> <r_i_glide_eff_state_penalty>
2.01714

$$$$
