lig_tnks2_5o
                    3D
 Schrodinger Suite 2020-3.
 47 49  0  0  1  0            999 V2000
  -41.3346  -15.1243   13.2997 C   0  0  0  0  0  0
  -40.5733  -14.2323   14.2640 C   0  0  0  0  0  0
  -40.6940  -14.5038   15.6295 C   0  0  0  0  0  0
  -40.0085  -13.7436   16.5711 C   0  0  0  0  0  0
  -40.1734  -14.0257   17.8818 F   0  0  0  0  0  0
  -39.1638  -12.7103   16.1607 C   0  0  0  0  0  0
  -39.0432  -12.4279   14.7937 C   0  0  0  0  0  0
  -38.1297  -11.3328   14.3048 C   0  0  0  0  0  0
  -37.3734  -10.6538   14.9980 O   0  0  0  0  0  0
  -38.1734  -11.1869   12.9598 N   0  0  0  0  0  0
  -38.9184  -11.8758   12.0281 C   0  0  0  0  0  0
  -38.7872  -11.5178   10.5884 C   0  0  0  0  0  0
  -38.1651  -10.3296   10.1737 C   0  0  0  0  0  0
  -38.0147  -10.0350    8.8178 C   0  0  0  0  0  0
  -38.4821  -10.9127    7.8292 C   0  0  0  0  0  0
  -38.3295  -10.5809    6.3192 C   0  0  0  0  0  0
  -37.0467   -9.8068    5.9731 C   0  0  0  0  0  0
  -38.1660  -11.8339    5.4312 C   0  0  0  0  0  0
  -39.4103   -9.7015    5.9731 O   0  0  0  0  0  0
  -40.4056  -10.0973    5.0153 C   0  0  0  0  0  0
  -40.9734   -8.8616    4.2900 C   0  0  0  0  0  0
  -42.1493   -9.1819    3.5731 O   0  0  0  0  0  0
  -39.1403  -12.0768    8.2483 C   0  0  0  0  0  0
  -39.2795  -12.3817    9.6012 C   0  0  0  0  0  0
  -39.6760  -12.8257   12.4701 N   0  0  0  0  0  0
  -39.7477  -13.1711   13.8374 C   0  0  0  0  0  0
  -37.5168  -10.4982   12.6236 H   0  0  0  0  0  0
  -41.4452  -16.1348   13.6948 H   0  0  0  0  0  0
  -42.3271  -14.7211   13.1031 H   0  0  0  0  0  0
  -40.7782  -15.2257   12.3731 H   0  0  0  0  0  0
  -41.3351  -15.3026   15.9738 H   0  0  0  0  0  0
  -38.6269  -12.1330   16.9021 H   0  0  0  0  0  0
  -37.7768   -9.6191   10.8898 H   0  0  0  0  0  0
  -37.5313   -9.1090    8.5507 H   0  0  0  0  0  0
  -36.1804  -10.4257    6.1953 H   0  0  0  0  0  0
  -36.9734   -9.6257    4.9023 H   0  0  0  0  0  0
  -36.9734   -8.8419    6.4729 H   0  0  0  0  0  0
  -37.3226  -12.4257    5.7746 H   0  0  0  0  0  0
  -39.0591  -12.4257    5.4337 H   0  0  0  0  0  0
  -37.9680  -11.5927    4.3854 H   0  0  0  0  0  0
  -41.1764  -10.6608    5.5410 H   0  0  0  0  0  0
  -40.0209  -10.7391    4.2253 H   0  0  0  0  0  0
  -40.2535   -8.4731    3.5718 H   0  0  0  0  0  0
  -41.1820   -8.0574    4.9982 H   0  0  0  0  0  0
  -42.8611   -9.2257    4.2232 H   0  0  0  0  0  0
  -39.5529  -12.7718    7.5345 H   0  0  0  0  0  0
  -39.7734  -13.3045    9.8738 H   0  0  0  0  0  0
  1  2  1  0  0  0
  1 28  1  0  0  0
  1 29  1  0  0  0
  1 30  1  0  0  0
  2 26  1  0  0  0
  2  3  2  0  0  0
  3  4  1  0  0  0
  3 31  1  0  0  0
  4  5  1  0  0  0
  4  6  2  0  0  0
  6  7  1  0  0  0
  6 32  1  0  0  0
  7 26  2  0  0  0
  7  8  1  0  0  0
  8  9  2  0  0  0
  8 10  1  0  0  0
 10 27  1  0  0  0
 10 11  1  0  0  0
 11 12  1  0  0  0
 11 25  2  0  0  0
 12 24  1  0  0  0
 12 13  2  0  0  0
 13 14  1  0  0  0
 13 33  1  0  0  0
 14 15  2  0  0  0
 14 34  1  0  0  0
 15 16  1  0  0  0
 15 23  1  0  0  0
 16 17  1  0  0  0
 16 18  1  0  0  0
 16 19  1  0  0  0
 17 35  1  0  0  0
 17 36  1  0  0  0
 17 37  1  0  0  0
 18 38  1  0  0  0
 18 39  1  0  0  0
 18 40  1  0  0  0
 19 20  1  0  0  0
 20 21  1  0  0  0
 20 41  1  0  0  0
 20 42  1  0  0  0
 21 22  1  0  0  0
 21 43  1  0  0  0
 21 44  1  0  0  0
 22 45  1  0  0  0
 23 24  2  0  0  0
 23 46  1  0  0  0
 24 47  1  0  0  0
 25 26  1  0  0  0
M  END
> <s_m_source_file>
/home/user-home/yujie/0_PBCNetv2/data/FEP/tnks2/inp_ligprep.csv

> <i_m_source_file_index>
23

> <i_lp_mmshare_version>
51139

> <i_f3d_flags>
0

> <s_epik_input>
RmMoW2NIXTEpW2NIXWMoW0NIM10pYyhjMTIpbmMoW25IXWMyPU8pLWMzW2NIXVtjSF1jKFtjSF1bY0hdMylDKFtDSDNdKShbQ0gzXSlPW0NIMl1bQ0gyXVtPSF0=

> <s_epik_cmdline>
J2VwaWtfcHl0aG9uJywgJy1waHQnLCAnMi4wJywgJy1waCcsICc3LjQnLCAnLXRuJywgJzgnLCAnLW1hJywgJzIwMCcsICctaW1hZScsICc8aW5maWxlLm1hZT4nLCAnLW9tYWUnLCAnPG91dGZpbGUubWFlPic=

> <r_lp_tautomer_probability>
0.883938

> <r_epik_Ionization_Penalty>
  0.0234

> <r_epik_Ionization_Penalty_Charging>
  0.0234

> <r_epik_Ionization_Penalty_Neutral>
  0.0000

> <r_epik_State_Penalty>
  0.0757

> <r_epik_Charging_Adjusted_Penalty>
0.0990886

> <i_epik_Tot_Q>
0

> <i_epik_Tot_abs_Q>
0

> <s_lp_Force_Field>
OPLS3e

> <r_lp_Energy>
30.5939

> <b_lp_Chiralities_Consistent>
1

> <s_lp_Variant>
lig_tnks2_5o-1

> <s_i_glide_gridfile>
tnks2-001-gridgen

> <i_i_glide_lignum>
69

> <i_i_glide_rotatable_bonds>
6

> <r_i_docking_score>
-11.4237251589892

> <r_i_glide_ligand_efficiency>
-0.439374044576509

> <r_i_glide_ligand_efficiency_sa>
-1.30164387820453

> <r_i_glide_ligand_efficiency_ln>
-2.68282436928902

> <r_i_glide_gscore>
-11.4994217589892

> <r_i_glide_lipo>
-4.52071150190792

> <r_i_glide_hbond>
-0.902066384458315

> <r_i_glide_metal>
-0

> <r_i_glide_rewards>
-2.89596447528194

> <r_i_glide_evdw>
-40.5102920532227

> <r_i_glide_ecoul>
-11.2157287597656

> <r_i_glide_erotb>
0.527194519284918

> <r_i_glide_esite>
0

> <r_i_glide_emodel>
-81.4331206282825

> <r_i_glide_energy>
-51.7260208129883

> <r_i_glide_einternal>
8.93048763275146

> <i_i_glide_confnum>
99

> <i_i_glide_posenum>
233

> <r_i_glide_eff_state_penalty>
0.0756966

$$$$
