lig_tnks2_5p
                    3D
 Schrodinger Suite 2020-3.
 47 49  0  0  1  0            999 V2000
  -42.2140  -13.6148    3.8447 C   0  0  0  0  0  0
  -42.1690  -12.4909    4.7142 O   0  0  0  0  0  0
  -41.4289  -11.3804    4.2126 C   0  0  0  0  0  0
  -39.8972  -11.5094    4.3911 C   0  0  0  0  0  0
  -39.5297  -11.6252    5.7726 O   0  0  0  0  0  0
  -38.9463  -10.5231    6.4954 C   0  0  0  0  0  0
  -37.5374  -10.2599    5.9117 C   0  0  0  0  0  0
  -39.8640   -9.2855    6.3919 C   0  0  0  0  0  0
  -38.8456  -10.9161    7.9830 C   0  0  0  0  0  0
  -38.2859  -10.0349    8.9205 C   0  0  0  0  0  0
  -38.2925  -10.3436   10.2807 C   0  0  0  0  0  0
  -38.8557  -11.5470   10.7269 C   0  0  0  0  0  0
  -38.9399  -11.8986   12.1603 C   0  0  0  0  0  0
  -39.7096  -12.8408   12.5858 N   0  0  0  0  0  0
  -39.7497  -13.2237   13.9281 C   0  0  0  0  0  0
  -40.5738  -14.2874   14.2839 C   0  0  0  0  0  0
  -40.7046  -14.6390   15.6282 C   0  0  0  0  0  0
  -40.0134  -13.9261   16.6097 C   0  0  0  0  0  0
  -40.1736  -14.2645   17.9066 F   0  0  0  0  0  0
  -39.1625  -12.8732   16.2533 C   0  0  0  0  0  0
  -39.0374  -12.5254   14.9024 C   0  0  0  0  0  0
  -38.1281  -11.4109   14.4383 C   0  0  0  0  0  0
  -37.3728  -10.7499   15.1464 O   0  0  0  0  0  0
  -38.1778  -11.2279   13.0948 N   0  0  0  0  0  0
  -39.3694  -12.4430    9.7815 C   0  0  0  0  0  0
  -39.3707  -12.1304    8.4321 C   0  0  0  0  0  0
  -37.5259  -10.5302   12.7678 H   0  0  0  0  0  0
  -42.7450  -14.4294    4.3367 H   0  0  0  0  0  0
  -41.2241  -13.9799    3.5746 H   0  0  0  0  0  0
  -42.7517  -13.3758    2.9260 H   0  0  0  0  0  0
  -41.6847  -11.1733    3.1721 H   0  0  0  0  0  0
  -41.7728  -10.5165    4.7722 H   0  0  0  0  0  0
  -39.5509  -12.4142    3.8899 H   0  0  0  0  0  0
  -39.3934  -10.6895    3.8798 H   0  0  0  0  0  0
  -37.0462   -9.4154    6.3976 H   0  0  0  0  0  0
  -36.8929  -11.1314    6.0359 H   0  0  0  0  0  0
  -37.5571  -10.0276    4.8488 H   0  0  0  0  0  0
  -39.3825   -8.3828    6.7710 H   0  0  0  0  0  0
  -40.1798   -9.0983    5.3711 H   0  0  0  0  0  0
  -40.7715   -9.4305    6.9772 H   0  0  0  0  0  0
  -37.8766   -9.0878    8.6016 H   0  0  0  0  0  0
  -37.8733   -9.6264   10.9742 H   0  0  0  0  0  0
  -41.1250  -14.8145   13.5203 H   0  0  0  0  0  0
  -41.3570  -15.4503   15.9141 H   0  0  0  0  0  0
  -38.6262  -12.3302   17.0194 H   0  0  0  0  0  0
  -39.7871  -13.3935   10.0803 H   0  0  0  0  0  0
  -39.8115  -12.8391    7.7484 H   0  0  0  0  0  0
  1  2  1  0  0  0
  1 28  1  0  0  0
  1 29  1  0  0  0
  1 30  1  0  0  0
  2  3  1  0  0  0
  3  4  1  0  0  0
  3 31  1  0  0  0
  3 32  1  0  0  0
  4  5  1  0  0  0
  4 33  1  0  0  0
  4 34  1  0  0  0
  5  6  1  0  0  0
  6  7  1  0  0  0
  6  8  1  0  0  0
  6  9  1  0  0  0
  7 35  1  0  0  0
  7 36  1  0  0  0
  7 37  1  0  0  0
  8 38  1  0  0  0
  8 39  1  0  0  0
  8 40  1  0  0  0
  9 26  1  0  0  0
  9 10  2  0  0  0
 10 11  1  0  0  0
 10 41  1  0  0  0
 11 12  2  0  0  0
 11 42  1  0  0  0
 12 13  1  0  0  0
 12 25  1  0  0  0
 13 24  1  0  0  0
 13 14  2  0  0  0
 14 15  1  0  0  0
 15 21  2  0  0  0
 15 16  1  0  0  0
 16 17  2  0  0  0
 16 43  1  0  0  0
 17 18  1  0  0  0
 17 44  1  0  0  0
 18 19  1  0  0  0
 18 20  2  0  0  0
 20 21  1  0  0  0
 20 45  1  0  0  0
 21 22  1  0  0  0
 22 23  2  0  0  0
 22 24  1  0  0  0
 24 27  1  0  0  0
 25 26  2  0  0  0
 25 46  1  0  0  0
 26 47  1  0  0  0
M  END
> <s_m_source_file>
/home/user-home/yujie/0_PBCNetv2/data/FEP/tnks2/inp_ligprep.csv

> <i_m_source_file_index>
20

> <i_lp_mmshare_version>
51139

> <i_f3d_flags>
0

> <s_epik_input>
W0NIM11PW0NIMl1bQ0gyXU9DKFtDSDNdKShbQ0gzXSljMVtjSF1bY0hdYyhbY0hdW2NIXTEpLWMobjIpW25IXWMoPU8pYyhjMjMpW2NIXWMoRilbY0hdW2NIXTM=

> <s_epik_cmdline>
J2VwaWtfcHl0aG9uJywgJy1waHQnLCAnMi4wJywgJy1waCcsICc3LjQnLCAnLXRuJywgJzgnLCAnLW1hJywgJzIwMCcsICctaW1hZScsICc8aW5maWxlLm1hZT4nLCAnLW9tYWUnLCAnPG91dGZpbGUubWFlPic=

> <r_lp_tautomer_probability>
0.883938

> <r_epik_Ionization_Penalty>
  0.0324

> <r_epik_Ionization_Penalty_Charging>
  0.0324

> <r_epik_Ionization_Penalty_Neutral>
  0.0000

> <r_epik_State_Penalty>
  0.0840

> <r_epik_Charging_Adjusted_Penalty>
0.116461

> <i_epik_Tot_Q>
0

> <i_epik_Tot_abs_Q>
0

> <s_lp_Force_Field>
OPLS3e

> <r_lp_Energy>
29.4243

> <b_lp_Chiralities_Consistent>
1

> <s_lp_Variant>
lig_tnks2_5p-1

> <s_i_glide_gridfile>
tnks2-001-gridgen

> <i_i_glide_lignum>
60

> <i_i_glide_rotatable_bonds>
6

> <r_i_docking_score>
-11.946472039969

> <r_i_glide_ligand_efficiency>
-0.459479693844963

> <r_i_glide_ligand_efficiency_sa>
-1.36120678505041

> <r_i_glide_ligand_efficiency_ln>
-2.8055897590147

> <r_i_glide_gscore>
-12.030483239969

> <r_i_glide_lipo>
-4.72788990302515

> <r_i_glide_hbond>
-0.773838525034858

> <r_i_glide_metal>
-0

> <r_i_glide_rewards>
-2.88925931540109

> <r_i_glide_evdw>
-49.0078735351562

> <r_i_glide_ecoul>
-11.4419755935669

> <r_i_glide_erotb>
0.527194519284918

> <r_i_glide_esite>
0

> <r_i_glide_emodel>
-97.8068465610255

> <r_i_glide_energy>
-60.4498491287231

> <r_i_glide_einternal>
2.14727306365967

> <i_i_glide_confnum>
72

> <i_i_glide_posenum>
332

> <r_i_glide_eff_state_penalty>
0.0840112

$$$$
