lig_tnks2_8b
                    3D
 Schrodinger Suite 2020-3.
 47 50  0  0  1  0            999 V2000
  -41.3547  -15.1508   13.3524 C   0  0  0  0  0  0
  -40.5856  -14.3008   14.3556 C   0  0  0  0  0  0
  -40.7024  -14.6102   15.7142 C   0  0  0  0  0  0
  -40.0179  -13.8709   16.6743 C   0  0  0  0  0  0
  -40.1740  -14.1879   17.9762 F   0  0  0  0  0  0
  -39.1769  -12.8228   16.2943 C   0  0  0  0  0  0
  -39.0580  -12.5031   14.9363 C   0  0  0  0  0  0
  -38.1366  -11.4030   14.4653 C   0  0  0  0  0  0
  -37.3742  -10.7443   15.1722 O   0  0  0  0  0  0
  -38.1832  -11.2268   13.1214 N   0  0  0  0  0  0
  -38.9277  -11.9094   12.1859 C   0  0  0  0  0  0
  -38.8175  -11.5713   10.7469 C   0  0  0  0  0  0
  -39.3735  -12.4468    9.8035 C   0  0  0  0  0  0
  -39.3500  -12.1486    8.4478 C   0  0  0  0  0  0
  -38.6897  -11.0130    7.9895 C   0  0  0  0  0  0
  -38.6241  -10.7829    6.6261 N   0  0  0  0  0  0
  -37.4072  -10.3261    5.9559 C   0  0  0  0  0  0
  -37.1890  -11.0222    4.5904 C   0  0  0  0  0  0
  -38.3390  -10.8253    3.7075 N   0  0  0  0  0  0
  -38.1113  -11.4500    2.4075 C   0  0  0  0  0  0
  -39.5545  -11.3446    4.3297 C   0  0  0  0  0  0
  -39.8002  -10.7540    5.7387 C   0  0  0  0  0  0
  -38.0861  -10.1538    8.9162 C   0  0  0  0  0  0
  -38.1731  -10.4148   10.2858 C   0  0  0  0  0  0
  -39.6931  -12.8534   12.6166 N   0  0  0  0  0  0
  -39.7642  -13.2251   13.9676 C   0  0  0  0  0  0
  -37.5322  -10.5320   12.7891 H   0  0  0  0  0  0
  -40.8176  -15.2259   12.4064 H   0  0  0  0  0  0
  -41.4867  -16.1731   13.7133 H   0  0  0  0  0  0
  -42.3405  -14.7206   13.1716 H   0  0  0  0  0  0
  -41.3412  -15.4185   16.0370 H   0  0  0  0  0  0
  -38.6388  -12.2625   17.0482 H   0  0  0  0  0  0
  -39.8589  -13.3612   10.1121 H   0  0  0  0  0  0
  -39.8068  -12.8321    7.7467 H   0  0  0  0  0  0
  -37.4197   -9.2397    5.8639 H   0  0  0  0  0  0
  -36.5734  -10.5714    6.6030 H   0  0  0  0  0  0
  -36.2998  -10.6035    4.1166 H   0  0  0  0  0  0
  -36.9953  -12.0868    4.7398 H   0  0  0  0  0  0
  -37.9842  -12.5309    2.4931 H   0  0  0  0  0  0
  -38.9516  -11.2604    1.7378 H   0  0  0  0  0  0
  -37.2176  -11.0406    1.9341 H   0  0  0  0  0  0
  -39.5085  -12.4264    4.3734 H   0  0  0  0  0  0
  -40.4075  -11.0985    3.6952 H   0  0  0  0  0  0
  -40.6372  -11.2678    6.2096 H   0  0  0  0  0  0
  -40.1136   -9.7142    5.6365 H   0  0  0  0  0  0
  -37.5720   -9.2657    8.5788 H   0  0  0  0  0  0
  -37.7355   -9.7038   10.9719 H   0  0  0  0  0  0
  1  2  1  0  0  0
  1 28  1  0  0  0
  1 29  1  0  0  0
  1 30  1  0  0  0
  2 26  1  0  0  0
  2  3  2  0  0  0
  3  4  1  0  0  0
  3 31  1  0  0  0
  4  5  1  0  0  0
  4  6  2  0  0  0
  6  7  1  0  0  0
  6 32  1  0  0  0
  7 26  2  0  0  0
  7  8  1  0  0  0
  8  9  2  0  0  0
  8 10  1  0  0  0
 10 27  1  0  0  0
 10 11  1  0  0  0
 11 12  1  0  0  0
 11 25  2  0  0  0
 12 24  1  0  0  0
 12 13  2  0  0  0
 13 14  1  0  0  0
 13 33  1  0  0  0
 14 15  2  0  0  0
 14 34  1  0  0  0
 15 16  1  0  0  0
 15 23  1  0  0  0
 16 22  1  0  0  0
 16 17  1  0  0  0
 17 18  1  0  0  0
 17 35  1  0  0  0
 17 36  1  0  0  0
 18 19  1  0  0  0
 18 37  1  0  0  0
 18 38  1  0  0  0
 19 20  1  0  0  0
 19 21  1  0  0  0
 20 39  1  0  0  0
 20 40  1  0  0  0
 20 41  1  0  0  0
 21 22  1  0  0  0
 21 42  1  0  0  0
 21 43  1  0  0  0
 22 44  1  0  0  0
 22 45  1  0  0  0
 23 24  2  0  0  0
 23 46  1  0  0  0
 24 47  1  0  0  0
 25 26  1  0  0  0
M  END
> <s_m_source_file>
/home/user-home/yujie/0_PBCNetv2/data/FEP/tnks2/inp_ligprep.csv

> <i_m_source_file_index>
27

> <i_lp_mmshare_version>
51139

> <i_f3d_flags>
0

> <s_epik_input>
RmMoW2NIXTEpW2NIXWMoW0NIM10pYyhjMTIpbmMoW25IXWMyPU8pLWMzW2NIXVtjSF1jKFtjSF1bY0hdMylONFtDSDJdW0NIMl1OKFtDSDNdKVtDSDJdW0NIMl00

> <s_epik_cmdline>
J2VwaWtfcHl0aG9uJywgJy1waHQnLCAnMi4wJywgJy1waCcsICc3LjQnLCAnLXRuJywgJzgnLCAnLW1hJywgJzIwMCcsICctaW1hZScsICc8aW5maWxlLm1hZT4nLCAnLW9tYWUnLCAnPG91dGZpbGUubWFlPic=

> <r_lp_tautomer_probability>
0.883938

> <r_epik_Ionization_Penalty>
  0.9738

> <r_epik_Ionization_Penalty_Charging>
  0.0888

> <r_epik_Ionization_Penalty_Neutral>
  0.8850

> <r_epik_State_Penalty>
  1.0579

> <r_epik_Charging_Adjusted_Penalty>
1.14677

> <i_epik_Tot_Q>
0

> <i_epik_Tot_abs_Q>
0

> <s_lp_Force_Field>
OPLS3e

> <r_lp_Energy>
53.3728

> <b_lp_Chiralities_Consistent>
1

> <s_lp_Variant>
lig_tnks2_8b-2

> <s_i_glide_gridfile>
tnks2-001-gridgen

> <i_i_glide_lignum>
82

> <i_i_glide_rotatable_bonds>
2

> <r_i_docking_score>
-10.9365505536815

> <r_i_glide_ligand_efficiency>
-0.42063655975698

> <r_i_glide_ligand_efficiency_sa>
-1.24613415315511

> <r_i_glide_ligand_efficiency_ln>
-2.56841301178276

> <r_i_glide_gscore>
-11.9944805536815

> <r_i_glide_lipo>
-4.75882063312255

> <r_i_glide_hbond>
-0.606628231958248

> <r_i_glide_metal>
-0

> <r_i_glide_rewards>
-3.19549913305499

> <r_i_glide_evdw>
-47.5204734802246

> <r_i_glide_ecoul>
-8.48433494567871

> <r_i_glide_erotb>
0.215141360317343

> <r_i_glide_esite>
0

> <r_i_glide_emodel>
-91.258445387896

> <r_i_glide_energy>
-56.0048084259033

> <r_i_glide_einternal>
4.30299091339111

> <i_i_glide_confnum>
13

> <i_i_glide_posenum>
5

> <r_i_glide_eff_state_penalty>
1.05793

$$$$
