lig_tnks2_7
                    3D
 Schrodinger Suite 2024-1.
 36 38  0  0  1  0            999 V2000
  -37.8920  -10.4269    5.9400 C   0  0  0  0  0  0
  -39.1864  -10.3262    6.7644 C   0  0  0  0  0  0
  -39.7733   -8.9004    6.7738 C   0  0  0  0  0  0
  -40.1626  -11.0991    6.0860 O   0  0  0  0  0  0
  -38.9436  -10.8024    8.1986 C   0  0  0  0  0  0
  -38.3404   -9.9604    9.1434 C   0  0  0  0  0  0
  -38.2918  -10.3397   10.4818 C   0  0  0  0  0  0
  -38.8445  -11.5748   10.8558 C   0  0  0  0  0  0
  -38.9592  -11.9908   12.2664 C   0  0  0  0  0  0
  -39.7139  -12.9510   12.6841 N   0  0  0  0  0  0
  -39.7717  -13.3099   14.0340 C   0  0  0  0  0  0
  -40.5893  -14.3780   14.3892 C   0  0  0  0  0  0
  -40.7203  -14.7311   15.7332 C   0  0  0  0  0  0
  -40.0285  -14.0216   16.7180 C   0  0  0  0  0  0
  -40.1795  -14.3820   18.0106 F   0  0  0  0  0  0
  -39.1855  -12.9573   16.3672 C   0  0  0  0  0  0
  -39.0623  -12.6080   15.0133 C   0  0  0  0  0  0
  -38.1485  -11.5018   14.5377 C   0  0  0  0  0  0
  -37.3729  -10.8260   15.2060 O   0  0  0  0  0  0
  -38.2085  -11.3190   13.2019 N   0  0  0  0  0  0
  -39.3434  -12.4414    9.9323 N   0  0  0  0  0  0
  -39.3716  -12.0605    8.6349 C   0  0  0  0  0  0
  -37.5642  -10.6169   12.8721 H   0  0  0  0  0  0
  -37.1054   -9.7983    6.3594 H   0  0  0  0  0  0
  -38.0446  -10.1072    4.9093 H   0  0  0  0  0  0
  -37.5176  -11.4514    5.9104 H   0  0  0  0  0  0
  -39.0336   -8.1519    7.0566 H   0  0  0  0  0  0
  -40.1756   -8.5950    5.8075 H   0  0  0  0  0  0
  -40.5933   -8.8258    7.4873 H   0  0  0  0  0  0
  -40.7612  -10.4885    5.6442 H   0  0  0  0  0  0
  -37.9575   -8.9908    8.8599 H   0  0  0  0  0  0
  -37.8705   -9.6521   11.2016 H   0  0  0  0  0  0
  -41.1329  -14.9111   13.6226 H   0  0  0  0  0  0
  -41.3691  -15.5462   16.0178 H   0  0  0  0  0  0
  -38.6478  -12.4185   17.1371 H   0  0  0  0  0  0
  -39.8262  -12.7654    7.9544 H   0  0  0  0  0  0
  1  2  1  0  0  0
  1 24  1  0  0  0
  1 25  1  0  0  0
  1 26  1  0  0  0
  2  3  1  0  0  0
  2  4  1  0  0  0
  2  5  1  0  0  0
  3 27  1  0  0  0
  3 28  1  0  0  0
  3 29  1  0  0  0
  4 30  1  0  0  0
  5 22  1  0  0  0
  5  6  2  0  0  0
  6  7  1  0  0  0
  6 31  1  0  0  0
  7  8  2  0  0  0
  7 32  1  0  0  0
  8  9  1  0  0  0
  8 21  1  0  0  0
  9 20  1  0  0  0
  9 10  2  0  0  0
 10 11  1  0  0  0
 11 17  2  0  0  0
 11 12  1  0  0  0
 12 13  2  0  0  0
 12 33  1  0  0  0
 13 14  1  0  0  0
 13 34  1  0  0  0
 14 15  1  0  0  0
 14 16  2  0  0  0
 16 17  1  0  0  0
 16 35  1  0  0  0
 17 18  1  0  0  0
 18 19  2  0  0  0
 18 20  1  0  0  0
 20 23  1  0  0  0
 21 22  2  0  0  0
 22 36  1  0  0  0
M  END
> <Tot Q>
0

> <Source File Index>
264

> <i_f3d_flags>
0

> <subgroup collapsed>
0

> <Ionization Penalty>
1.0691

> <State Penalty>
0.762

> <docking score>
-10.4978

> <glide emodel>
-88.0851

> <glide gscore>
-11.2598

> <tautomer probability>
0.883938

> <Source File>
tnks2tnks2_dock_SP_confgen_100_lib.maegz

> <Source Path>
C:\Users\yujie\Desktop\FEPs

> <entry id>
6406

> <subgroup title>
tnks2tnks2_dock_SP_confgen_100_lib

> <subgroupid>
tnks2tnks2_dock_SP_confgen_100_lib

$$$$
