lig_tnks2_8c
                    3D
 Schrodinger Suite 2024-1.
 43 46  0  0  1  0            999 V2000
  -37.2744  -10.4281   14.4467 O   0  0  0  0  0  0
  -38.0511  -11.0732   13.7444 C   0  0  0  0  0  0
  -38.1778  -10.8501   12.4067 N   0  0  0  0  0  0
  -38.9739  -11.5151   11.4931 C   0  0  0  0  0  0
  -39.0479  -11.0994   10.0694 C   0  0  0  0  0  0
  -39.2998  -12.0762    9.0975 C   0  0  0  0  0  0
  -39.5237  -11.7223    7.7729 C   0  0  0  0  0  0
  -39.5072  -10.3840    7.3616 C   0  0  0  0  0  0
  -39.7681  -10.0075    5.8780 C   0  0  0  0  0  0
  -40.2327  -11.1817    4.9733 C   0  0  0  0  0  0
  -40.5754  -10.7912    3.5307 C   0  0  0  0  0  0
  -41.6975   -9.7488    3.5708 N   0  3  0  0  0  0
  -41.2322   -8.4431    4.2306 C   0  0  0  0  0  0
  -40.5734   -8.6738    5.6421 C   0  0  0  0  0  0
  -39.2033   -9.4099    8.3237 C   0  0  0  0  0  0
  -38.9709   -9.7583    9.6609 C   0  0  0  0  0  0
  -39.6605  -12.5167   11.9296 N   0  0  0  0  0  0
  -39.6408  -12.9246   13.2728 C   0  0  0  0  0  0
  -40.4040  -14.0305   13.6727 C   0  0  0  0  0  0
  -41.1025  -14.7671   12.7801 F   0  0  0  0  0  0
  -40.4411  -14.4031   15.0165 C   0  0  0  0  0  0
  -39.7214  -13.6798   15.9660 C   0  0  0  0  0  0
  -39.7871  -14.0496   17.2613 F   0  0  0  0  0  0
  -38.9398  -12.5892   15.5787 C   0  0  0  0  0  0
  -38.9089  -12.2156   14.2276 C   0  0  0  0  0  0
  -37.5282  -10.1524   12.0692 H   0  0  0  0  0  0
  -42.0490   -9.5582    2.6420 H   0  0  0  0  0  0
  -39.3676  -13.1220    9.3685 H   0  0  0  0  0  0
  -39.7337  -12.5221    7.0858 H   0  0  0  0  0  0
  -38.7420   -9.8020    5.5709 H   0  0  0  0  0  0
  -39.4171  -11.9017    4.8936 H   0  0  0  0  0  0
  -41.0910  -11.6916    5.4142 H   0  0  0  0  0  0
  -39.7348  -10.3530    2.9869 H   0  0  0  0  0  0
  -40.9658  -11.6354    2.9612 H   0  0  0  0  0  0
  -40.5347   -8.0193    3.5074 H   0  0  0  0  0  0
  -42.1187   -7.8036    4.2875 H   0  0  0  0  0  0
  -41.2422   -8.4254    6.4584 H   0  0  0  0  0  0
  -39.9233   -7.8277    5.8688 H   0  0  0  0  0  0
  -39.1699   -8.3663    8.0486 H   0  0  0  0  0  0
  -38.7770   -8.9712   10.3758 H   0  0  0  0  0  0
  -41.0363  -15.2498   15.3236 H   0  0  0  0  0  0
  -38.3756  -12.0485   16.3274 H   0  0  0  0  0  0
  -42.4703  -10.0976    4.1228 H   0  0  0  0  0  0
  1  2  2  0  0  0
  2 25  1  0  0  0
  2  3  1  0  0  0
  3 26  1  0  0  0
  3  4  1  0  0  0
  4  5  1  0  0  0
  4 17  2  0  0  0
  5 16  1  0  0  0
  5  6  2  0  0  0
  6  7  1  0  0  0
  6 28  1  0  0  0
  7  8  2  0  0  0
  7 29  1  0  0  0
  8  9  1  0  0  0
  8 15  1  0  0  0
  9 14  1  0  0  0
  9 10  1  0  0  0
  9 30  1  0  0  0
 10 11  1  0  0  0
 10 31  1  0  0  0
 10 32  1  0  0  0
 11 12  1  0  0  0
 11 33  1  0  0  0
 11 34  1  0  0  0
 12 27  1  0  0  0
 12 13  1  0  0  0
 12 43  1  0  0  0
 13 14  1  0  0  0
 13 35  1  0  0  0
 13 36  1  0  0  0
 14 37  1  0  0  0
 14 38  1  0  0  0
 15 16  2  0  0  0
 15 39  1  0  0  0
 16 40  1  0  0  0
 17 18  1  0  0  0
 18 25  2  0  0  0
 18 19  1  0  0  0
 19 20  1  0  0  0
 19 21  2  0  0  0
 21 22  1  0  0  0
 21 41  1  0  0  0
 22 23  1  0  0  0
 22 24  2  0  0  0
 24 25  1  0  0  0
 24 42  1  0  0  0
M  CHG  1  12   1
M  END
> <Tot Q>
1

> <Source File Index>
293

> <i_f3d_flags>
0

> <subgroup collapsed>
0

> <Ionization Penalty>
0.1904

> <State Penalty>
0.2463

> <docking score>
-9.84619

> <glide emodel>
-57.1193

> <glide gscore>
-10.0925

> <tautomer probability>
0.883938

> <Source File>
tnks2tnks2_dock_SP_confgen_100_lib.maegz

> <Source Path>
C:\Users\yujie\Desktop\FEPs

> <entry id>
6435

> <subgroup title>
tnks2tnks2_dock_SP_confgen_100_lib

> <subgroupid>
tnks2tnks2_dock_SP_confgen_100_lib

$$$$
