1CY
                    3D
 Schrodinger Suite 2024-1.
 32 33  0  0  1  0            999 V2000
   28.9578  -25.5703    7.7680 N   0  0  0  0  0  0
   28.1600  -25.5367    8.8478 C   0  0  0  0  0  0
   27.5935  -26.6767    9.2807 N   0  3  0  0  0  0
   27.8121  -27.9234    8.7279 C   0  0  0  0  0  0
   28.7387  -28.0147    7.6933 N   0  0  0  0  0  0
   29.2302  -26.7951    7.0002 C   0  0  0  0  0  0
   27.9356  -24.3704    9.4674 N   0  0  0  0  0  0
   27.1354  -28.8638    9.2835 N   0  0  0  0  0  0
   28.5341  -26.6019    5.6364 C   0  0  0  0  0  0
   30.7584  -26.8347    6.7844 C   0  0  0  0  0  0
   29.1232  -29.2233    7.0913 C   0  0  0  0  0  0
   30.2419  -29.9289    7.5845 C   0  0  0  0  0  0
   30.6191  -31.1543    7.0029 C   0  0  0  0  0  0
   29.8730  -31.6799    5.9308 C   0  0  0  0  0  0
   28.7460  -30.9919    5.4466 C   0  0  0  0  0  0
   28.3683  -29.7690    6.0292 C   0  0  0  0  0  0
   30.3355  -33.1704    5.2081 Cl  0  0  0  0  0  0
   26.5175  -28.5532   10.0226 H   0  0  0  0  0  0
   27.2844  -24.2742   10.2322 H   0  0  0  0  0  0
   27.4587  -26.7654    5.7067 H   0  0  0  0  0  0
   28.6909  -25.5925    5.2533 H   0  0  0  0  0  0
   28.9229  -27.2855    4.8830 H   0  0  0  0  0  0
   31.2819  -27.1138    7.6992 H   0  0  0  0  0  0
   31.0481  -27.5431    6.0072 H   0  0  0  0  0  0
   31.1396  -25.8590    6.4824 H   0  0  0  0  0  0
   30.8069  -29.5312    8.4151 H   0  0  0  0  0  0
   31.4778  -31.6893    7.3814 H   0  0  0  0  0  0
   28.1693  -31.4044    4.6316 H   0  0  0  0  0  0
   27.4908  -29.2566    5.6635 H   0  0  0  0  0  0
   28.3363  -23.5047    9.0476 H   0  0  0  0  0  0
   29.2751  -24.6834    7.3559 H   0  0  0  0  0  0
   26.9702  -26.6143   10.0693 H   0  0  0  0  0  0
  1  2  1  0  0  0
  1  6  1  0  0  0
  1 31  1  0  0  0
  2  3  2  0  0  0
  2  7  1  0  0  0
  3  4  1  0  0  0
  3 32  1  0  0  0
  4  5  1  0  0  0
  4  8  2  0  0  0
  5  6  1  0  0  0
  5 11  1  0  0  0
  6  9  1  0  0  0
  6 10  1  0  0  0
  7 19  1  0  0  0
  7 30  1  0  0  0
  8 18  1  0  0  0
  9 20  1  0  0  0
  9 21  1  0  0  0
  9 22  1  0  0  0
 10 23  1  0  0  0
 10 24  1  0  0  0
 10 25  1  0  0  0
 11 12  2  0  0  0
 11 16  1  0  0  0
 12 13  1  0  0  0
 12 26  1  0  0  0
 13 14  2  0  0  0
 13 27  1  0  0  0
 14 15  1  0  0  0
 14 17  1  0  0  0
 15 16  2  0  0  0
 15 28  1  0  0  0
 16 29  1  0  0  0
M  CHG  1   3   1
M  END
> <i_epik_Tot_Q>
1

> <i_epik_Tot_abs_Q>
1

> <i_f3d_flags>
0

> <i_i_glide_confnum>
2

> <i_i_glide_lignum>
2

> <i_i_glide_posenum>
196

> <i_i_glide_rotatable_bonds>
1

> <i_lp_mmshare_version>
65135

> <i_m_Source_File_Index>
1

> <i_m_source_file_index>
1

> <i_m_stars>
0

> <i_pdb_PDB_CRYST1_z>
8

> <b_lp_Chiralities_Consistent>
1

> <b_m_subgroup_collapsed>
0

> <b_ppw_created_disulfur>
1

> <b_ppw_prepared>
1

> <r_epik_Charging_Adjusted_Penalty>
0.505082

> <r_epik_Ionization_Penalty>
0.0473

> <r_epik_Ionization_Penalty_Charging>
0.0473

> <r_epik_Ionization_Penalty_Neutral>
0

> <r_epik_State_Penalty>
0.4578

> <r_i_Bend_Energy-S-OPLS>
1075.04

> <r_i_Dihedral_Energy-S-OPLS>
1166.72

> <r_i_El-14_Energy-S-OPLS>
989.372

> <r_i_Electrostatic_Energy-S-OPLS>
-2973.45

> <r_i_LJ-14_Energy-S-OPLS>
2715.25

> <r_i_Max_Derivative-S-OPLS>
2.40366

> <r_i_Potential_Energy-S-OPLS>
-2083.24

> <r_i_RMS_Derivative-S-OPLS>
0.0991951

> <r_i_Stretch_Energy-S-OPLS>
258.056

> <r_i_Van_der_Waals_Energy-S-OPLS>
-5386.72

> <r_i_docking_score>
-7.52111

> <r_i_glide_ecoul>
-8.94708

> <r_i_glide_eff_state_penalty>
0.4578

> <r_i_glide_einternal>
0.122291

> <r_i_glide_emodel>
-55.5129

> <r_i_glide_energy>
-34.8305

> <r_i_glide_erotb>
0.192391

> <r_i_glide_esite>
-0.18014

> <r_i_glide_evdw>
-25.8834

> <r_i_glide_gscore>
-7.97891

> <r_i_glide_hbond>
-0.708485

> <r_i_glide_ligand_efficiency>
-0.442418

> <r_i_glide_ligand_efficiency_ln>
-1.96209

> <r_i_glide_ligand_efficiency_sa>
-1.13758

> <r_i_glide_lipo>
-2.01544

> <r_i_glide_metal>
0

> <r_i_glide_rewards>
-2.63101

> <r_i_target_temperature>
298

> <r_lp_Energy>
31.7796

> <r_pdb_PDB_CRYST1_a>
58.761

> <r_pdb_PDB_CRYST1_alpha>
90

> <r_pdb_PDB_CRYST1_b>
157.538

> <r_pdb_PDB_CRYST1_beta>
90

> <r_pdb_PDB_CRYST1_c>
164.509

> <r_pdb_PDB_CRYST1_gamma>
90

> <r_pdb_PDB_EXPDTA_PH>
4.6

> <r_pdb_PDB_EXPDTA_TEMPERATURE>
100

> <r_pdb_PDB_R>
0.212

> <r_pdb_PDB_RESOLUTION>
2.6

> <r_pdb_PDB_Rfree>
0.258

> <r_ppw_preprocess_pH>
7.4

> <s_epik_Chemistry_Notes>
This compound has an imine and may undergo hydrolysis.

> <s_epik_cmdline>
J2VwaWtfcHl0aG9uJywgJy1waCcsICc3LjAnLCAnLXRuJywgJzgnLCAnLW1hJywgJzUwMCcsICctaW1hZScsICc8aW5maWxlLm1hZT4nLCAnLW9tYWUnLCAnPG91dGZpbGUubWFlPic=

> <s_epik_input>
W0NIM11DMShbQ0gzXSlOPUMoW05IMl0pTj1DKFtOSDJdKU4xYzJbY0hdW2NIXWMoQ2wpW2NIXVtjSF0y

> <s_i_glide_gridfile>
glide-grid_A7UD81_A16S_S108T

> <s_lp_Force_Field>
S-OPLS

> <s_lp_Variant>
1CY-2

> <s_m_Source_File>
glide-dock_SP_A7UD81_A16S_S108T_pv.maegz

> <s_m_Source_Path>
C:\Users\sheng xia\Documents\Schrodinger\glide-dock_SP_A7UD81_A16S_S108T

> <s_m_entry_id>
140

> <s_m_entry_name>
Structure29

> <s_m_job_name>
glide-dock_SP_A7UD81_A16S_S108T

> <s_m_source_file>
ligprep_1CY.maegz

> <s_m_subgroup_title>
glide-dock_SP_A7UD81_A16S_S108T_pv

> <s_m_subgroupid>
glide-dock_SP_A7UD81_A16S_S108T_pv

> <s_pdb_PDB_CLASSIFICATION>
OXIDOREDUCTASE, TRANSFERASE/INHIBITOR

> <s_pdb_PDB_CRYST1_Space_Group>
P 21 21 21

> <s_pdb_PDB_DEPOSITION_DATE>
12-NOV-11

> <s_pdb_PDB_EXPDTA>
X-RAY DIFFRACTION

> <s_pdb_PDB_ID>
3UM8

> <s_pdb_PDB_REMARK_350_Biomolecule_1_Transform_1_Chains>
A, B

> <s_pdb_PDB_REMARK_350_Biomolecule_1_Transform_1_Matrix_1>
1.000000 0.000000 0.000000   0.000000;0.000000 1.000000 0.000000   0.000000;0.000000 0.000000 1.000000   0.000000

> <s_pdb_PDB_TITLE>
WILD-TYPE PLASMODIUM FALCIPARUM DHFR-TS COMPLEXED WITH CYCLOGUANIL AND NADPH

> <s_pdb_PDB_format_version>
3.30

> <s_ppw_het_states>
eJztklFrgzAUhf+K5FmKV73O7a+UEqRNOyHTkdjCEP/7bpK2R2GPe9te5OST5JxzubPSN+N8Pw5avWUNU8V5JqyzVxPIrEi++1kd3zt3MT4c9jXXdZ4VhzwLkiEbyBfIFvL1KbmAJMgSsoKEG8ON4cZwY7gx3JroJlqN7iR9VzVSg/IeMAG5SGiXim1ASE8onfqWqJ5a0xqEloSJbF0iCDUJg0rT2ILqCTgmZUS/AzzKKSmic0zKSMopGJIm0KAct49Hyzi9TzN0dvqS8VW7lkjiqA8zdVanH31ckHkR7I+jM3IYrtbKsR/Oo/aTWxGvR9dferkn8NxZb+TeT4u2mvz/ov25RSt2RUHtLy/aYVm+AYLlKMg=

> <s_ppw_prepared_with_version>
2024-1

$$$$
