1CY
                    3D
 Schrodinger Suite 2024-1.
 32 33  0  0  1  0            999 V2000
   27.2771  -26.9892    8.9888 N   0  0  0  0  0  0
   27.8472  -25.7901    8.7429 C   0  0  0  0  0  0
   28.7313  -25.6826    7.7446 N   0  3  0  0  0  0
   29.1928  -26.7285    6.9830 C   0  0  0  0  0  0
   28.7986  -28.0115    7.3549 N   0  0  0  0  0  0
   27.5330  -28.1668    8.1215 C   0  0  0  0  0  0
   27.5483  -24.7034    9.4661 N   0  0  0  0  0  0
   29.9486  -26.3286    6.0288 N   0  0  0  0  0  0
   27.5807  -29.3983    9.0498 C   0  0  0  0  0  0
   26.3309  -28.3262    7.1501 C   0  0  0  0  0  0
   29.2702  -29.1997    6.7648 C   0  0  0  0  0  0
   28.6853  -29.6908    5.5801 C   0  0  0  0  0  0
   29.1401  -30.8808    4.9891 C   0  0  0  0  0  0
   30.2001  -31.5900    5.5761 C   0  0  0  0  0  0
   30.8063  -31.1056    6.7525 C   0  0  0  0  0  0
   30.3450  -29.9106    7.3428 C   0  0  0  0  0  0
   30.7481  -33.0439    4.8349 Cl  0  0  0  0  0  0
   30.0280  -25.3130    6.0340 H   0  0  0  0  0  0
   27.9891  -23.8161    9.2147 H   0  0  0  0  0  0
   28.4961  -29.4082    9.6344 H   0  0  0  0  0  0
   26.7476  -29.4200    9.7507 H   0  0  0  0  0  0
   27.5479  -30.3286    8.4858 H   0  0  0  0  0  0
   26.3177  -27.5451    6.3881 H   0  0  0  0  0  0
   26.3465  -29.2883    6.6413 H   0  0  0  0  0  0
   25.3618  -28.3286    7.6344 H   0  0  0  0  0  0
   27.8853  -29.1474    5.1026 H   0  0  0  0  0  0
   28.6801  -31.2442    4.0816 H   0  0  0  0  0  0
   31.6264  -31.6480    7.1990 H   0  0  0  0  0  0
   30.8139  -29.5397    8.2418 H   0  0  0  0  0  0
   26.8162  -24.6976   10.1624 H   0  0  0  0  0  0
   26.6000  -27.0908    9.7308 H   0  0  0  0  0  0
   29.0654  -24.7523    7.4944 H   0  0  0  0  0  0
  1  2  1  0  0  0
  1  6  1  0  0  0
  1 31  1  0  0  0
  2  3  2  0  0  0
  2  7  1  0  0  0
  3  4  1  0  0  0
  3 32  1  0  0  0
  4  5  1  0  0  0
  4  8  2  0  0  0
  5  6  1  0  0  0
  5 11  1  0  0  0
  6  9  1  0  0  0
  6 10  1  0  0  0
  7 19  1  0  0  0
  7 30  1  0  0  0
  8 18  1  0  0  0
  9 20  1  0  0  0
  9 21  1  0  0  0
  9 22  1  0  0  0
 10 23  1  0  0  0
 10 24  1  0  0  0
 10 25  1  0  0  0
 11 12  2  0  0  0
 11 16  1  0  0  0
 12 13  1  0  0  0
 12 26  1  0  0  0
 13 14  2  0  0  0
 13 27  1  0  0  0
 14 15  1  0  0  0
 14 17  1  0  0  0
 15 16  2  0  0  0
 15 28  1  0  0  0
 16 29  1  0  0  0
M  CHG  1   3   1
M  END
> <i_epik_Tot_Q>
1

> <i_epik_Tot_abs_Q>
1

> <i_f3d_flags>
0

> <i_i_glide_confnum>
2

> <i_i_glide_lignum>
2

> <i_i_glide_posenum>
192

> <i_i_glide_rotatable_bonds>
1

> <i_lp_mmshare_version>
65135

> <i_m_Source_File_Index>
1

> <i_m_source_file_index>
1

> <i_m_stars>
0

> <i_pdb_PDB_CRYST1_z>
8

> <b_lp_Chiralities_Consistent>
1

> <b_m_subgroup_collapsed>
0

> <b_ppw_created_disulfur>
1

> <b_ppw_prepared>
1

> <r_epik_Charging_Adjusted_Penalty>
0.505082

> <r_epik_Ionization_Penalty>
0.0473

> <r_epik_Ionization_Penalty_Charging>
0.0473

> <r_epik_Ionization_Penalty_Neutral>
0

> <r_epik_State_Penalty>
0.4578

> <r_i_Bend_Energy-S-OPLS>
1075.04

> <r_i_Dihedral_Energy-S-OPLS>
1166.72

> <r_i_El-14_Energy-S-OPLS>
989.372

> <r_i_Electrostatic_Energy-S-OPLS>
-2973.45

> <r_i_LJ-14_Energy-S-OPLS>
2715.25

> <r_i_Max_Derivative-S-OPLS>
2.40366

> <r_i_Potential_Energy-S-OPLS>
-2083.24

> <r_i_RMS_Derivative-S-OPLS>
0.0991951

> <r_i_Stretch_Energy-S-OPLS>
258.056

> <r_i_Van_der_Waals_Energy-S-OPLS>
-5386.72

> <r_i_docking_score>
-6.87221

> <r_i_glide_ecoul>
-8.10417

> <r_i_glide_eff_state_penalty>
0.4578

> <r_i_glide_einternal>
0.356839

> <r_i_glide_emodel>
-51.5002

> <r_i_glide_energy>
-31.4768

> <r_i_glide_erotb>
0.192391

> <r_i_glide_esite>
-0.1

> <r_i_glide_evdw>
-23.3726

> <r_i_glide_gscore>
-7.33001

> <r_i_glide_hbond>
-0.56

> <r_i_glide_ligand_efficiency>
-0.404248

> <r_i_glide_ligand_efficiency_ln>
-1.79281

> <r_i_glide_ligand_efficiency_sa>
-1.03943

> <r_i_glide_lipo>
-1.52649

> <r_i_glide_metal>
0

> <r_i_glide_rewards>
-2.95166

> <r_i_target_temperature>
298

> <r_lp_Energy>
31.7796

> <r_pdb_PDB_CRYST1_a>
58.761

> <r_pdb_PDB_CRYST1_alpha>
90

> <r_pdb_PDB_CRYST1_b>
157.538

> <r_pdb_PDB_CRYST1_beta>
90

> <r_pdb_PDB_CRYST1_c>
164.509

> <r_pdb_PDB_CRYST1_gamma>
90

> <r_pdb_PDB_EXPDTA_PH>
4.6

> <r_pdb_PDB_EXPDTA_TEMPERATURE>
100

> <r_pdb_PDB_R>
0.212

> <r_pdb_PDB_RESOLUTION>
2.6

> <r_pdb_PDB_Rfree>
0.258

> <r_ppw_preprocess_pH>
7.4

> <s_epik_Chemistry_Notes>
This compound has an imine and may undergo hydrolysis.

> <s_epik_cmdline>
J2VwaWtfcHl0aG9uJywgJy1waCcsICc3LjAnLCAnLXRuJywgJzgnLCAnLW1hJywgJzUwMCcsICctaW1hZScsICc8aW5maWxlLm1hZT4nLCAnLW9tYWUnLCAnPG91dGZpbGUubWFlPic=

> <s_epik_input>
W0NIM11DMShbQ0gzXSlOPUMoW05IMl0pTj1DKFtOSDJdKU4xYzJbY0hdW2NIXWMoQ2wpW2NIXVtjSF0y

> <s_i_glide_gridfile>
glide-grid_A7UD81_N51I_C59R_S108N_I164L

> <s_lp_Force_Field>
S-OPLS

> <s_lp_Variant>
1CY-2

> <s_m_Source_File>
glide-dock_SP_A7UD81_N51I_C59R_S108N_I164L_pv.maegz

> <s_m_Source_Path>
C:\Users\sheng xia\Documents\Schrodinger\glide-dock_SP_A7UD81_N51I_C59R_S108N_I164L

> <s_m_entry_id>
224

> <s_m_entry_name>
Structure29

> <s_m_job_name>
glide-dock_SP_A7UD81_N51I_C59R_S108N_I164L

> <s_m_source_file>
ligprep_1CY.maegz

> <s_m_subgroup_title>
glide-dock_SP_A7UD81_N51I_C59R_S108N_I164L_pv

> <s_m_subgroupid>
glide-dock_SP_A7UD81_N51I_C59R_S108N_I164L_pv

> <s_pdb_PDB_CLASSIFICATION>
OXIDOREDUCTASE, TRANSFERASE/INHIBITOR

> <s_pdb_PDB_CRYST1_Space_Group>
P 21 21 21

> <s_pdb_PDB_DEPOSITION_DATE>
12-NOV-11

> <s_pdb_PDB_EXPDTA>
X-RAY DIFFRACTION

> <s_pdb_PDB_ID>
3UM8

> <s_pdb_PDB_REMARK_350_Biomolecule_1_Transform_1_Chains>
A, B

> <s_pdb_PDB_REMARK_350_Biomolecule_1_Transform_1_Matrix_1>
1.000000 0.000000 0.000000   0.000000;0.000000 1.000000 0.000000   0.000000;0.000000 0.000000 1.000000   0.000000

> <s_pdb_PDB_TITLE>
WILD-TYPE PLASMODIUM FALCIPARUM DHFR-TS COMPLEXED WITH CYCLOGUANIL AND NADPH

> <s_pdb_PDB_format_version>
3.30

> <s_ppw_het_states>
eJztklFrgzAUhf+K5FmKV73O7a+UEqRNOyHTkdjCEP/7bpK2R2GPe9te5OST5JxzubPSN+N8Pw5avWUNU8V5JqyzVxPIrEi++1kd3zt3MT4c9jXXdZ4VhzwLkiEbyBfIFvL1KbmAJMgSsoKEG8ON4cZwY7gx3JroJlqN7iR9VzVSg/IeMAG5SGiXim1ASE8onfqWqJ5a0xqEloSJbF0iCDUJg0rT2ILqCTgmZUS/AzzKKSmic0zKSMopGJIm0KAct49Hyzi9TzN0dvqS8VW7lkjiqA8zdVanH31ckHkR7I+jM3IYrtbKsR/Oo/aTWxGvR9dferkn8NxZb+TeT4u2mvz/ov25RSt2RUHtLy/aYVm+AYLlKMg=

> <s_ppw_prepared_with_version>
2024-1

$$$$
