1CY
                    3D
 Schrodinger Suite 2024-1.
 32 33  0  0  1  0            999 V2000
   31.1924    4.5443   56.2941 N   0  0  0  0  0  0
   30.5475    5.3078   55.3951 C   0  0  0  0  0  0
   29.5729    6.1316   55.8140 N   0  3  0  0  0  0
   29.0771    6.1904   57.0940 C   0  0  0  0  0  0
   29.6357    5.3188   58.0270 N   0  0  0  0  0  0
   30.9675    4.7180   57.7446 C   0  0  0  0  0  0
   30.8829    5.2516   54.1035 N   0  0  0  0  0  0
   28.1359    7.0564   57.2051 N   0  0  0  0  0  0
   31.1341    3.3124   58.3667 C   0  0  0  0  0  0
   32.0885    5.6445   58.2722 C   0  0  0  0  0  0
   29.2450    5.2201   59.3722 C   0  0  0  0  0  0
   29.6957    6.1622   60.3239 C   0  0  0  0  0  0
   29.3276    6.0387   61.6758 C   0  0  0  0  0  0
   28.5021    4.9744   62.0817 C   0  0  0  0  0  0
   28.0234    4.0503   61.1348 C   0  0  0  0  0  0
   28.3921    4.1730   59.7822 C   0  0  0  0  0  0
   28.0831    4.8050   63.7400 Cl  0  0  0  0  0  0
   27.7837    7.0658   58.1527 H   0  0  0  0  0  0
   30.4598    5.9471   53.4601 H   0  0  0  0  0  0
   30.3373    2.6384   58.0525 H   0  0  0  0  0  0
   32.0816    2.8551   58.0795 H   0  0  0  0  0  0
   31.1283    3.3442   59.4528 H   0  0  0  0  0  0
   31.8794    6.6943   58.0581 H   0  0  0  0  0  0
   32.2205    5.5472   59.3504 H   0  0  0  0  0  0
   33.0524    5.4217   57.8263 H   0  0  0  0  0  0
   30.3340    6.9781   60.0216 H   0  0  0  0  0  0
   29.6834    6.7537   62.4041 H   0  0  0  0  0  0
   27.3854    3.2402   61.4523 H   0  0  0  0  0  0
   28.0369    3.4514   59.0602 H   0  0  0  0  0  0
   31.6478    4.6874   53.7603 H   0  0  0  0  0  0
   31.9300    3.9238   55.9972 H   0  0  0  0  0  0
   29.1850    6.7895   55.1499 H   0  0  0  0  0  0
  1  2  1  0  0  0
  1  6  1  0  0  0
  1 31  1  0  0  0
  2  3  2  0  0  0
  2  7  1  0  0  0
  3  4  1  0  0  0
  3 32  1  0  0  0
  4  5  1  0  0  0
  4  8  2  0  0  0
  5  6  1  0  0  0
  5 11  1  0  0  0
  6  9  1  0  0  0
  6 10  1  0  0  0
  7 19  1  0  0  0
  7 30  1  0  0  0
  8 18  1  0  0  0
  9 20  1  0  0  0
  9 21  1  0  0  0
  9 22  1  0  0  0
 10 23  1  0  0  0
 10 24  1  0  0  0
 10 25  1  0  0  0
 11 12  2  0  0  0
 11 16  1  0  0  0
 12 13  1  0  0  0
 12 26  1  0  0  0
 13 14  2  0  0  0
 13 27  1  0  0  0
 14 15  1  0  0  0
 14 17  1  0  0  0
 15 16  2  0  0  0
 15 28  1  0  0  0
 16 29  1  0  0  0
M  CHG  1   3   1
M  END
> <i_epik_Tot_Q>
1

> <i_epik_Tot_abs_Q>
1

> <i_f3d_flags>
0

> <i_i_glide_confnum>
2

> <i_i_glide_lignum>
1

> <i_i_glide_posenum>
374

> <i_i_glide_rotatable_bonds>
1

> <i_lp_mmshare_version>
65135

> <i_m_Source_File_Index>
1

> <i_m_source_file_index>
1

> <i_m_stars>
0

> <i_pdb_PDB_CRYST1_z>
8

> <b_lp_Chiralities_Consistent>
1

> <b_m_subgroup_collapsed>
0

> <b_ppw_created_disulfur>
1

> <b_ppw_prepared>
1

> <r_epik_Charging_Adjusted_Penalty>
0.505082

> <r_epik_Ionization_Penalty>
0.0473

> <r_epik_Ionization_Penalty_Charging>
0.0473

> <r_epik_Ionization_Penalty_Neutral>
0

> <r_epik_State_Penalty>
0.4578

> <r_i_Bend_Energy-S-OPLS>
1075.04

> <r_i_Dihedral_Energy-S-OPLS>
1166.72

> <r_i_El-14_Energy-S-OPLS>
989.372

> <r_i_Electrostatic_Energy-S-OPLS>
-2973.45

> <r_i_LJ-14_Energy-S-OPLS>
2715.25

> <r_i_Max_Derivative-S-OPLS>
2.40366

> <r_i_Potential_Energy-S-OPLS>
-2083.24

> <r_i_RMS_Derivative-S-OPLS>
0.0991951

> <r_i_Stretch_Energy-S-OPLS>
258.056

> <r_i_Van_der_Waals_Energy-S-OPLS>
-5386.72

> <r_i_docking_score>
-6.8462

> <r_i_glide_ecoul>
-6.07804

> <r_i_glide_eff_state_penalty>
0.4578

> <r_i_glide_einternal>
0.145753

> <r_i_glide_emodel>
-47.8638

> <r_i_glide_energy>
-30.6546

> <r_i_glide_erotb>
0.192391

> <r_i_glide_esite>
-0.0795858

> <r_i_glide_evdw>
-24.5765

> <r_i_glide_gscore>
-7.304

> <r_i_glide_hbond>
-0.195605

> <r_i_glide_ligand_efficiency>
-0.402718

> <r_i_glide_ligand_efficiency_ln>
-1.78602

> <r_i_glide_ligand_efficiency_sa>
-1.0355

> <r_i_glide_lipo>
-2.06821

> <r_i_glide_metal>
0

> <r_i_glide_rewards>
-3.01247

> <r_i_target_temperature>
298

> <r_lp_Energy>
31.2658

> <r_pdb_PDB_CRYST1_a>
58.761

> <r_pdb_PDB_CRYST1_alpha>
90

> <r_pdb_PDB_CRYST1_b>
157.538

> <r_pdb_PDB_CRYST1_beta>
90

> <r_pdb_PDB_CRYST1_c>
164.509

> <r_pdb_PDB_CRYST1_gamma>
90

> <r_pdb_PDB_EXPDTA_PH>
4.6

> <r_pdb_PDB_EXPDTA_TEMPERATURE>
100

> <r_pdb_PDB_R>
0.212

> <r_pdb_PDB_RESOLUTION>
2.6

> <r_pdb_PDB_Rfree>
0.258

> <r_ppw_preprocess_pH>
7.4

> <s_epik_Chemistry_Notes>
This compound has an imine and may undergo hydrolysis.

> <s_epik_cmdline>
J2VwaWtfcHl0aG9uJywgJy1waCcsICc3LjAnLCAnLXRuJywgJzgnLCAnLW1hJywgJzUwMCcsICctaW1hZScsICc8aW5maWxlLm1hZT4nLCAnLW9tYWUnLCAnPG91dGZpbGUubWFlPic=

> <s_epik_input>
W0NIM11DMShbQ0gzXSlOPUMoW05IMl0pTj1DKFtOSDJdKU4xYzJbY0hdW2NIXWMoQ2wpW2NIXVtjSF0y

> <s_i_glide_gridfile>
glide-grid_A7UD81_S108N

> <s_lp_Force_Field>
S-OPLS

> <s_lp_Variant>
1CY-1

> <s_m_Source_File>
glide-dock_SP_A7UD81_S108N_pv.maegz

> <s_m_Source_Path>
C:\Users\sheng xia\Documents\Schrodinger\glide-dock_SP_A7UD81_S108N

> <s_m_entry_id>
245

> <s_m_entry_name>
Structure29

> <s_m_job_name>
glide-dock_SP_A7UD81_S108N

> <s_m_source_file>
ligprep_1CY.maegz

> <s_m_subgroup_title>
glide-dock_SP_A7UD81_S108N_pv

> <s_m_subgroupid>
glide-dock_SP_A7UD81_S108N_pv

> <s_pdb_PDB_CLASSIFICATION>
OXIDOREDUCTASE, TRANSFERASE/INHIBITOR

> <s_pdb_PDB_CRYST1_Space_Group>
P 21 21 21

> <s_pdb_PDB_DEPOSITION_DATE>
12-NOV-11

> <s_pdb_PDB_EXPDTA>
X-RAY DIFFRACTION

> <s_pdb_PDB_ID>
3UM8

> <s_pdb_PDB_REMARK_350_Biomolecule_1_Transform_1_Chains>
A, B

> <s_pdb_PDB_REMARK_350_Biomolecule_1_Transform_1_Matrix_1>
1.000000 0.000000 0.000000   0.000000;0.000000 1.000000 0.000000   0.000000;0.000000 0.000000 1.000000   0.000000

> <s_pdb_PDB_TITLE>
WILD-TYPE PLASMODIUM FALCIPARUM DHFR-TS COMPLEXED WITH CYCLOGUANIL AND NADPH

> <s_pdb_PDB_format_version>
3.30

> <s_ppw_het_states>
eJztklFrgzAUhf+K5FmKV73O7a+UEqRNOyHTkdjCEP/7bpK2R2GPe9te5OST5JxzubPSN+N8Pw5avWUNU8V5JqyzVxPIrEi++1kd3zt3MT4c9jXXdZ4VhzwLkiEbyBfIFvL1KbmAJMgSsoKEG8ON4cZwY7gx3JroJlqN7iR9VzVSg/IeMAG5SGiXim1ASE8onfqWqJ5a0xqEloSJbF0iCDUJg0rT2ILqCTgmZUS/AzzKKSmic0zKSMopGJIm0KAct49Hyzi9TzN0dvqS8VW7lkjiqA8zdVanH31ckHkR7I+jM3IYrtbKsR/Oo/aTWxGvR9dferkn8NxZb+TeT4u2mvz/ov25RSt2RUHtLy/aYVm+AYLlKMg=

> <s_ppw_prepared_with_version>
2024-1

$$$$
