1CY
                    3D
 Schrodinger Suite 2024-1.
 32 33  0  0  1  0            999 V2000
   30.7863    4.4668   56.1459 N   0  0  0  0  0  0
   30.1006    5.1775   55.2346 C   0  0  0  0  0  0
   29.2192    6.1061   55.6533 N   0  3  0  0  0  0
   28.8468    6.3145   56.9668 C   0  0  0  0  0  0
   29.3904    5.4364   57.9047 N   0  0  0  0  0  0
   30.6929    4.7956   57.5826 C   0  0  0  0  0  0
   30.2962    4.9552   53.9286 N   0  0  0  0  0  0
   28.0257    7.2945   57.1153 N   0  0  0  0  0  0
   30.9423    3.4720   58.3505 C   0  0  0  0  0  0
   31.8454    5.7718   57.9009 C   0  0  0  0  0  0
   29.0446    5.3370   59.2623 C   0  0  0  0  0  0
   28.1044    4.3638   59.6600 C   0  0  0  0  0  0
   27.8507    4.1388   61.0246 C   0  0  0  0  0  0
   28.5320    4.8939   61.9965 C   0  0  0  0  0  0
   29.4223    5.9119   61.6077 C   0  0  0  0  0  0
   29.6742    6.1378   60.2417 C   0  0  0  0  0  0
   28.2964    4.5500   63.6641 Cl  0  0  0  0  0  0
   27.8252    7.7586   56.2419 H   0  0  0  0  0  0
   29.9265    5.6548   53.2664 H   0  0  0  0  0  0
   30.0960    2.7940   58.2605 H   0  0  0  0  0  0
   31.8203    2.9471   57.9709 H   0  0  0  0  0  0
   31.1162    3.6343   59.4151 H   0  0  0  0  0  0
   31.5666    6.8125   57.7319 H   0  0  0  0  0  0
   32.1879    5.6878   58.9331 H   0  0  0  0  0  0
   32.6962    5.5732   57.2642 H   0  0  0  0  0  0
   27.6117    3.7556   58.9157 H   0  0  0  0  0  0
   27.1595    3.3654   61.3255 H   0  0  0  0  0  0
   29.9314    6.5010   62.3570 H   0  0  0  0  0  0
   30.3778    6.9044   59.9537 H   0  0  0  0  0  0
   31.0291    4.3419   53.6042 H   0  0  0  0  0  0
   31.4963    3.8140   55.8504 H   0  0  0  0  0  0
   28.8360    6.7095   54.9403 H   0  0  0  0  0  0
  1  2  1  0  0  0
  1  6  1  0  0  0
  1 31  1  0  0  0
  2  3  2  0  0  0
  2  7  1  0  0  0
  3  4  1  0  0  0
  3 32  1  0  0  0
  4  5  1  0  0  0
  4  8  2  0  0  0
  5  6  1  0  0  0
  5 11  1  0  0  0
  6  9  1  0  0  0
  6 10  1  0  0  0
  7 19  1  0  0  0
  7 30  1  0  0  0
  8 18  1  0  0  0
  9 20  1  0  0  0
  9 21  1  0  0  0
  9 22  1  0  0  0
 10 23  1  0  0  0
 10 24  1  0  0  0
 10 25  1  0  0  0
 11 12  2  0  0  0
 11 16  1  0  0  0
 12 13  1  0  0  0
 12 26  1  0  0  0
 13 14  2  0  0  0
 13 27  1  0  0  0
 14 15  1  0  0  0
 14 17  1  0  0  0
 15 16  2  0  0  0
 15 28  1  0  0  0
 16 29  1  0  0  0
M  CHG  1   3   1
M  END
> <i_epik_Tot_Q>
1

> <i_epik_Tot_abs_Q>
1

> <i_f3d_flags>
0

> <i_i_glide_confnum>
1

> <i_i_glide_lignum>
2

> <i_i_glide_posenum>
323

> <i_i_glide_rotatable_bonds>
1

> <i_lp_mmshare_version>
65135

> <i_m_Source_File_Index>
1

> <i_m_source_file_index>
1

> <i_m_stars>
0

> <i_pdb_PDB_CRYST1_z>
8

> <b_lp_Chiralities_Consistent>
1

> <b_m_subgroup_collapsed>
0

> <b_ppw_created_disulfur>
1

> <b_ppw_prepared>
1

> <r_epik_Charging_Adjusted_Penalty>
0.505082

> <r_epik_Ionization_Penalty>
0.0473

> <r_epik_Ionization_Penalty_Charging>
0.0473

> <r_epik_Ionization_Penalty_Neutral>
0

> <r_epik_State_Penalty>
0.4578

> <r_i_Bend_Energy-S-OPLS>
1075.04

> <r_i_Dihedral_Energy-S-OPLS>
1166.72

> <r_i_El-14_Energy-S-OPLS>
989.372

> <r_i_Electrostatic_Energy-S-OPLS>
-2973.45

> <r_i_LJ-14_Energy-S-OPLS>
2715.25

> <r_i_Max_Derivative-S-OPLS>
2.40366

> <r_i_Potential_Energy-S-OPLS>
-2083.24

> <r_i_RMS_Derivative-S-OPLS>
0.0991951

> <r_i_Stretch_Energy-S-OPLS>
258.056

> <r_i_Van_der_Waals_Energy-S-OPLS>
-5386.72

> <r_i_docking_score>
-6.58376

> <r_i_glide_ecoul>
-4.61337

> <r_i_glide_eff_state_penalty>
0.4578

> <r_i_glide_einternal>
0.135257

> <r_i_glide_emodel>
-48.4524

> <r_i_glide_energy>
-30.1701

> <r_i_glide_erotb>
0.192391

> <r_i_glide_esite>
-0.0989706

> <r_i_glide_evdw>
-25.5567

> <r_i_glide_gscore>
-7.04156

> <r_i_glide_hbond>
-0.2

> <r_i_glide_ligand_efficiency>
-0.38728

> <r_i_glide_ligand_efficiency_ln>
-1.71756

> <r_i_glide_ligand_efficiency_sa>
-0.995806

> <r_i_glide_lipo>
-2.01942

> <r_i_glide_metal>
0

> <r_i_glide_rewards>
-2.94571

> <r_i_target_temperature>
298

> <r_lp_Energy>
31.7796

> <r_pdb_PDB_CRYST1_a>
58.761

> <r_pdb_PDB_CRYST1_alpha>
90

> <r_pdb_PDB_CRYST1_b>
157.538

> <r_pdb_PDB_CRYST1_beta>
90

> <r_pdb_PDB_CRYST1_c>
164.509

> <r_pdb_PDB_CRYST1_gamma>
90

> <r_pdb_PDB_EXPDTA_PH>
4.6

> <r_pdb_PDB_EXPDTA_TEMPERATURE>
100

> <r_pdb_PDB_R>
0.212

> <r_pdb_PDB_RESOLUTION>
2.6

> <r_pdb_PDB_Rfree>
0.258

> <r_ppw_preprocess_pH>
7.4

> <s_epik_Chemistry_Notes>
This compound has an imine and may undergo hydrolysis.

> <s_epik_cmdline>
J2VwaWtfcHl0aG9uJywgJy1waCcsICc3LjAnLCAnLXRuJywgJzgnLCAnLW1hJywgJzUwMCcsICctaW1hZScsICc8aW5maWxlLm1hZT4nLCAnLW9tYWUnLCAnPG91dGZpbGUubWFlPic=

> <s_epik_input>
W0NIM11DMShbQ0gzXSlOPUMoW05IMl0pTj1DKFtOSDJdKU4xYzJbY0hdW2NIXWMoQ2wpW2NIXVtjSF0y

> <s_i_glide_gridfile>
glide-grid_A7UD81_A16S

> <s_lp_Force_Field>
S-OPLS

> <s_lp_Variant>
1CY-2

> <s_m_Source_File>
glide-dock_SP_A7UD81_A16S_pv.maegz

> <s_m_Source_Path>
C:\Users\sheng xia\Documents\Schrodinger\glide-dock_SP_A7UD81_A16S

> <s_m_entry_id>
119

> <s_m_entry_name>
Structure29

> <s_m_job_name>
glide-dock_SP_A7UD81_A16S

> <s_m_source_file>
ligprep_1CY.maegz

> <s_m_subgroup_title>
glide-dock_SP_A7UD81_A16S_pv

> <s_m_subgroupid>
glide-dock_SP_A7UD81_A16S_pv

> <s_pdb_PDB_CLASSIFICATION>
OXIDOREDUCTASE, TRANSFERASE/INHIBITOR

> <s_pdb_PDB_CRYST1_Space_Group>
P 21 21 21

> <s_pdb_PDB_DEPOSITION_DATE>
12-NOV-11

> <s_pdb_PDB_EXPDTA>
X-RAY DIFFRACTION

> <s_pdb_PDB_ID>
3UM8

> <s_pdb_PDB_REMARK_350_Biomolecule_1_Transform_1_Chains>
A, B

> <s_pdb_PDB_REMARK_350_Biomolecule_1_Transform_1_Matrix_1>
1.000000 0.000000 0.000000   0.000000;0.000000 1.000000 0.000000   0.000000;0.000000 0.000000 1.000000   0.000000

> <s_pdb_PDB_TITLE>
WILD-TYPE PLASMODIUM FALCIPARUM DHFR-TS COMPLEXED WITH CYCLOGUANIL AND NADPH

> <s_pdb_PDB_format_version>
3.30

> <s_ppw_het_states>
eJztklFrgzAUhf+K5FmKV73O7a+UEqRNOyHTkdjCEP/7bpK2R2GPe9te5OST5JxzubPSN+N8Pw5avWUNU8V5JqyzVxPIrEi++1kd3zt3MT4c9jXXdZ4VhzwLkiEbyBfIFvL1KbmAJMgSsoKEG8ON4cZwY7gx3JroJlqN7iR9VzVSg/IeMAG5SGiXim1ASE8onfqWqJ5a0xqEloSJbF0iCDUJg0rT2ILqCTgmZUS/AzzKKSmic0zKSMopGJIm0KAct49Hyzi9TzN0dvqS8VW7lkjiqA8zdVanH31ckHkR7I+jM3IYrtbKsR/Oo/aTWxGvR9dferkn8NxZb+TeT4u2mvz/ov25RSt2RUHtLy/aYVm+AYLlKMg=

> <s_ppw_prepared_with_version>
2024-1

$$$$
