1CY
                    3D
 Schrodinger Suite 2024-1.
 32 33  0  0  1  0            999 V2000
   31.0168    4.6009   56.3671 N   0  0  0  0  0  0
   30.4381    5.3950   55.4521 C   0  0  0  0  0  0
   29.6094    6.3759   55.8494 N   0  3  0  0  0  0
   29.1579    6.5457   57.1433 C   0  0  0  0  0  0
   29.5807    5.5883   58.0681 N   0  0  0  0  0  0
   30.8607    4.8746   57.8060 C   0  0  0  0  0  0
   30.6870    5.2050   54.1548 N   0  0  0  0  0  0
   28.3803    7.5621   57.2791 N   0  0  0  0  0  0
   30.9781    3.5009   58.5158 C   0  0  0  0  0  0
   32.0513    5.7542   58.2521 C   0  0  0  0  0  0
   29.1122    5.4040   59.3781 C   0  0  0  0  0  0
   29.6692    6.1175   60.4618 C   0  0  0  0  0  0
   29.3370    5.7659   61.7830 C   0  0  0  0  0  0
   28.4408    4.7074   62.0210 C   0  0  0  0  0  0
   27.8200    4.0472   60.9447 C   0  0  0  0  0  0
   28.1496    4.4035   59.6249 C   0  0  0  0  0  0
   28.1375    4.1893   63.6308 Cl  0  0  0  0  0  0
   28.2724    8.0728   56.4140 H   0  0  0  0  0  0
   30.3045    5.8965   53.4847 H   0  0  0  0  0  0
   30.1381    2.8489   58.2772 H   0  0  0  0  0  0
   31.8854    2.9749   58.2179 H   0  0  0  0  0  0
   31.0268    3.6008   59.6005 H   0  0  0  0  0  0
   31.9424    6.7892   57.9267 H   0  0  0  0  0  0
   32.1689    5.7596   59.3353 H   0  0  0  0  0  0
   32.9897    5.3920   57.8490 H   0  0  0  0  0  0
   30.3919    6.8997   60.2874 H   0  0  0  0  0  0
   29.7987    6.2819   62.6122 H   0  0  0  0  0  0
   27.1268    3.2394   61.1296 H   0  0  0  0  0  0
   27.7224    3.8540   58.7992 H   0  0  0  0  0  0
   31.3703    4.5386   53.8231 H   0  0  0  0  0  0
   31.6644    3.8805   56.0856 H   0  0  0  0  0  0
   29.3392    7.0533   55.1465 H   0  0  0  0  0  0
  1  2  1  0  0  0
  1  6  1  0  0  0
  1 31  1  0  0  0
  2  3  2  0  0  0
  2  7  1  0  0  0
  3  4  1  0  0  0
  3 32  1  0  0  0
  4  5  1  0  0  0
  4  8  2  0  0  0
  5  6  1  0  0  0
  5 11  1  0  0  0
  6  9  1  0  0  0
  6 10  1  0  0  0
  7 19  1  0  0  0
  7 30  1  0  0  0
  8 18  1  0  0  0
  9 20  1  0  0  0
  9 21  1  0  0  0
  9 22  1  0  0  0
 10 23  1  0  0  0
 10 24  1  0  0  0
 10 25  1  0  0  0
 11 12  2  0  0  0
 11 16  1  0  0  0
 12 13  1  0  0  0
 12 26  1  0  0  0
 13 14  2  0  0  0
 13 27  1  0  0  0
 14 15  1  0  0  0
 14 17  1  0  0  0
 15 16  2  0  0  0
 15 28  1  0  0  0
 16 29  1  0  0  0
M  CHG  1   3   1
M  END
> <i_epik_Tot_Q>
1

> <i_epik_Tot_abs_Q>
1

> <i_f3d_flags>
0

> <i_i_glide_confnum>
1

> <i_i_glide_lignum>
2

> <i_i_glide_posenum>
349

> <i_i_glide_rotatable_bonds>
1

> <i_lp_mmshare_version>
65135

> <i_m_Source_File_Index>
1

> <i_m_source_file_index>
1

> <i_m_stars>
0

> <i_pdb_PDB_CRYST1_z>
8

> <b_lp_Chiralities_Consistent>
1

> <b_m_subgroup_collapsed>
0

> <b_ppw_created_disulfur>
1

> <b_ppw_prepared>
1

> <r_epik_Charging_Adjusted_Penalty>
0.505082

> <r_epik_Ionization_Penalty>
0.0473

> <r_epik_Ionization_Penalty_Charging>
0.0473

> <r_epik_Ionization_Penalty_Neutral>
0

> <r_epik_State_Penalty>
0.4578

> <r_i_Bend_Energy-S-OPLS>
1075.04

> <r_i_Dihedral_Energy-S-OPLS>
1166.72

> <r_i_El-14_Energy-S-OPLS>
989.372

> <r_i_Electrostatic_Energy-S-OPLS>
-2973.45

> <r_i_LJ-14_Energy-S-OPLS>
2715.25

> <r_i_Max_Derivative-S-OPLS>
2.40366

> <r_i_Potential_Energy-S-OPLS>
-2083.24

> <r_i_RMS_Derivative-S-OPLS>
0.0991951

> <r_i_Stretch_Energy-S-OPLS>
258.056

> <r_i_Van_der_Waals_Energy-S-OPLS>
-5386.72

> <r_i_docking_score>
-6.92557

> <r_i_glide_ecoul>
-6.9321

> <r_i_glide_eff_state_penalty>
0.4578

> <r_i_glide_einternal>
0.171962

> <r_i_glide_emodel>
-51.6234

> <r_i_glide_energy>
-31.5736

> <r_i_glide_erotb>
0.192391

> <r_i_glide_esite>
-0.117719

> <r_i_glide_evdw>
-24.6415

> <r_i_glide_gscore>
-7.38337

> <r_i_glide_hbond>
-0.334525

> <r_i_glide_ligand_efficiency>
-0.407387

> <r_i_glide_ligand_efficiency_ln>
-1.80673

> <r_i_glide_ligand_efficiency_sa>
-1.04751

> <r_i_glide_lipo>
-1.90068

> <r_i_glide_metal>
0

> <r_i_glide_rewards>
-2.95095

> <r_i_target_temperature>
298

> <r_lp_Energy>
31.7796

> <r_pdb_PDB_CRYST1_a>
58.761

> <r_pdb_PDB_CRYST1_alpha>
90

> <r_pdb_PDB_CRYST1_b>
157.538

> <r_pdb_PDB_CRYST1_beta>
90

> <r_pdb_PDB_CRYST1_c>
164.509

> <r_pdb_PDB_CRYST1_gamma>
90

> <r_pdb_PDB_EXPDTA_PH>
4.6

> <r_pdb_PDB_EXPDTA_TEMPERATURE>
100

> <r_pdb_PDB_R>
0.212

> <r_pdb_PDB_RESOLUTION>
2.6

> <r_pdb_PDB_Rfree>
0.258

> <r_ppw_preprocess_pH>
7.4

> <s_epik_Chemistry_Notes>
This compound has an imine and may undergo hydrolysis.

> <s_epik_cmdline>
J2VwaWtfcHl0aG9uJywgJy1waCcsICc3LjAnLCAnLXRuJywgJzgnLCAnLW1hJywgJzUwMCcsICctaW1hZScsICc8aW5maWxlLm1hZT4nLCAnLW9tYWUnLCAnPG91dGZpbGUubWFlPic=

> <s_epik_input>
W0NIM11DMShbQ0gzXSlOPUMoW05IMl0pTj1DKFtOSDJdKU4xYzJbY0hdW2NIXWMoQ2wpW2NIXVtjSF0y

> <s_i_glide_gridfile>
glide-grid_A7UD81_S108T

> <s_lp_Force_Field>
S-OPLS

> <s_lp_Variant>
1CY-2

> <s_m_Source_File>
glide-dock_SP_A7UD81_S108T_pv.maegz

> <s_m_Source_Path>
C:\Users\sheng xia\Documents\Schrodinger\glide-dock_SP_A7UD81_S108T

> <s_m_entry_id>
266

> <s_m_entry_name>
Structure29

> <s_m_job_name>
glide-dock_SP_A7UD81_S108T

> <s_m_source_file>
ligprep_1CY.maegz

> <s_m_subgroup_title>
glide-dock_SP_A7UD81_S108T_pv

> <s_m_subgroupid>
glide-dock_SP_A7UD81_S108T_pv

> <s_pdb_PDB_CLASSIFICATION>
OXIDOREDUCTASE, TRANSFERASE/INHIBITOR

> <s_pdb_PDB_CRYST1_Space_Group>
P 21 21 21

> <s_pdb_PDB_DEPOSITION_DATE>
12-NOV-11

> <s_pdb_PDB_EXPDTA>
X-RAY DIFFRACTION

> <s_pdb_PDB_ID>
3UM8

> <s_pdb_PDB_REMARK_350_Biomolecule_1_Transform_1_Chains>
A, B

> <s_pdb_PDB_REMARK_350_Biomolecule_1_Transform_1_Matrix_1>
1.000000 0.000000 0.000000   0.000000;0.000000 1.000000 0.000000   0.000000;0.000000 0.000000 1.000000   0.000000

> <s_pdb_PDB_TITLE>
WILD-TYPE PLASMODIUM FALCIPARUM DHFR-TS COMPLEXED WITH CYCLOGUANIL AND NADPH

> <s_pdb_PDB_format_version>
3.30

> <s_ppw_het_states>
eJztklFrgzAUhf+K5FmKV73O7a+UEqRNOyHTkdjCEP/7bpK2R2GPe9te5OST5JxzubPSN+N8Pw5avWUNU8V5JqyzVxPIrEi++1kd3zt3MT4c9jXXdZ4VhzwLkiEbyBfIFvL1KbmAJMgSsoKEG8ON4cZwY7gx3JroJlqN7iR9VzVSg/IeMAG5SGiXim1ASE8onfqWqJ5a0xqEloSJbF0iCDUJg0rT2ILqCTgmZUS/AzzKKSmic0zKSMopGJIm0KAct49Hyzi9TzN0dvqS8VW7lkjiqA8zdVanH31ckHkR7I+jM3IYrtbKsR/Oo/aTWxGvR9dferkn8NxZb+TeT4u2mvz/ov25RSt2RUHtLy/aYVm+AYLlKMg=

> <s_ppw_prepared_with_version>
2024-1

$$$$
