1CY
                    3D
 Schrodinger Suite 2024-1.
 32 33  0  0  1  0            999 V2000
   27.4658  -26.7733    9.0741 N   0  0  0  0  0  0
   28.0444  -25.6050    8.7304 C   0  0  0  0  0  0
   28.8949  -25.5873    7.6978 N   0  3  0  0  0  0
   29.3497  -26.6919    7.0230 C   0  0  0  0  0  0
   28.8802  -27.9279    7.4489 N   0  0  0  0  0  0
   27.6057  -27.9754    8.2151 C   0  0  0  0  0  0
   27.7905  -24.4626    9.3848 N   0  0  0  0  0  0
   30.1774  -26.3873    6.0943 N   0  0  0  0  0  0
   27.5166  -29.2152    9.1252 C   0  0  0  0  0  0
   26.3968  -27.9882    7.2407 C   0  0  0  0  0  0
   29.2970  -29.1602    6.9180 C   0  0  0  0  0  0
   28.8030  -29.5981    5.6733 C   0  0  0  0  0  0
   29.1774  -30.8433    5.1497 C   0  0  0  0  0  0
   30.0659  -31.6566    5.8681 C   0  0  0  0  0  0
   30.6030  -31.2187    7.0941 C   0  0  0  0  0  0
   30.2254  -29.9649    7.6124 C   0  0  0  0  0  0
   30.4880  -33.1873    5.2244 Cl  0  0  0  0  0  0
   30.3039  -25.3800    6.0474 H   0  0  0  0  0  0
   28.2489  -23.6065    9.0388 H   0  0  0  0  0  0
   28.4283  -29.3586    9.6943 H   0  0  0  0  0  0
   26.7039  -29.1420    9.8429 H   0  0  0  0  0  0
   27.3538  -30.1170    8.5400 H   0  0  0  0  0  0
   26.1856  -26.9959    6.8430 H   0  0  0  0  0  0
   26.5359  -28.6402    6.3873 H   0  0  0  0  0  0
   25.4941  -28.3873    7.6943 H   0  0  0  0  0  0
   28.1336  -28.9777    5.1019 H   0  0  0  0  0  0
   28.7827  -31.1741    4.2001 H   0  0  0  0  0  0
   31.2992  -31.8417    7.6357 H   0  0  0  0  0  0
   30.6401  -29.6229    8.5474 H   0  0  0  0  0  0
   27.0745  -24.3835   10.0941 H   0  0  0  0  0  0
   26.8051  -26.8116    9.8362 H   0  0  0  0  0  0
   29.1958  -24.6674    7.3542 H   0  0  0  0  0  0
  1  2  1  0  0  0
  1  6  1  0  0  0
  1 31  1  0  0  0
  2  3  2  0  0  0
  2  7  1  0  0  0
  3  4  1  0  0  0
  3 32  1  0  0  0
  4  5  1  0  0  0
  4  8  2  0  0  0
  5  6  1  0  0  0
  5 11  1  0  0  0
  6  9  1  0  0  0
  6 10  1  0  0  0
  7 19  1  0  0  0
  7 30  1  0  0  0
  8 18  1  0  0  0
  9 20  1  0  0  0
  9 21  1  0  0  0
  9 22  1  0  0  0
 10 23  1  0  0  0
 10 24  1  0  0  0
 10 25  1  0  0  0
 11 12  2  0  0  0
 11 16  1  0  0  0
 12 13  1  0  0  0
 12 26  1  0  0  0
 13 14  2  0  0  0
 13 27  1  0  0  0
 14 15  1  0  0  0
 14 17  1  0  0  0
 15 16  2  0  0  0
 15 28  1  0  0  0
 16 29  1  0  0  0
M  CHG  1   3   1
M  END
> <Tot Q>
1

> <flags>
0

> <stars>
0

> <subgroup collapsed>
0

> <prepared>
1

> <Ionization Penalty>
0.0473

> <State Penalty>
0.4578

> <Potential Energy-S-OPLS>
-2083.24

> <docking score>
-7.24814

> <glide emodel>
-53.3915

> <glide gscore>
-7.70594

> <PDB EXPDTA PH>
4.6

> <PDB EXPDTA TEMPERATURE>
100

> <PDB RESOLUTION>
2.6

> <entry id>
848

> <subgroup title>
glide-dock_SP_A7UD81_WT_pv

> <subgroupid>
glide-dock_SP_A7UD81_WT_pv-imp

> <PDB EXPDTA>
X-RAY DIFFRACTION

> <PDB ID>
3UM8

> <PDB TITLE>
WILD-TYPE PLASMODIUM FALCIPARUM DHFR-TS COMPLEXED WITH CYCLOGUANIL AND NADPH

$$$$
