PTP1B_23470
                    3D
 Schrodinger Suite 2020-3.
 42 43  0  0  1  0            999 V2000
   49.1313    5.9350    4.7841 C   0  0  0  0  0  0
   48.2072    6.0446    3.5568 C   0  0  0  0  0  0
   48.4905    4.9617    2.5010 C   0  0  0  0  0  0
   48.1128    7.3846    2.9674 N   0  0  0  0  0  0
   49.1220    8.1565    2.5136 C   0  0  0  0  0  0
   50.3097    7.8752    2.6534 O   0  0  0  0  0  0
   48.7805    9.3216    1.9284 N   0  0  0  0  0  0
   47.5225    9.7716    1.4932 C   0  0  0  0  0  0
   46.6220    8.9602    0.7914 C   0  0  0  0  0  0
   45.4086    9.4917    0.3490 C   0  0  0  0  0  0
   45.0848   10.8196    0.6337 C   0  0  0  0  0  0
   45.9833   11.6498    1.3182 C   0  0  0  0  0  0
   45.6587   13.0831    1.6227 C   0  0  0  0  0  0
   44.6304   13.9672    0.5295 S   0  0  0  0  0  0
   44.7554   15.4316    1.4613 C   0  0  0  0  0  0
   44.0652   16.6468    1.0040 C   0  0  0  0  0  0
   43.5985   16.6592   -0.1557 O   0  0  0  0  0  0
   44.0008   17.6258    1.7856 O   0  5  0  0  0  0
   45.5412   15.2168    2.5912 C   0  0  0  0  0  0
   45.7648   16.1645    3.5480 O   0  0  0  0  0  0
   46.9952   16.8674    3.3745 C   0  0  0  0  0  0
   47.2866   17.6571    4.6592 C   0  0  0  0  0  0
   48.4207   18.1768    4.7445 O   0  0  0  0  0  0
   46.4006   17.7554    5.5466 O   0  5  0  0  0  0
   46.0613   13.9113    2.6802 C   0  0  0  0  0  0
   47.1943   13.3780    4.1273 Br  0  0  0  0  0  0
   47.2105   11.1116    1.7184 C   0  0  0  0  0  0
   49.1426    4.9077    5.1467 H   0  0  0  0  0  0
   50.1649    6.1858    4.5518 H   0  0  0  0  0  0
   48.7841    6.5655    5.6044 H   0  0  0  0  0  0
   47.2057    5.8492    3.9480 H   0  0  0  0  0  0
   48.5965    3.9815    2.9652 H   0  0  0  0  0  0
   47.6712    4.8801    1.7868 H   0  0  0  0  0  0
   49.4187    5.1559    1.9605 H   0  0  0  0  0  0
   47.1755    7.7153    2.7952 H   0  0  0  0  0  0
   49.5151   10.0128    1.9142 H   0  0  0  0  0  0
   46.8609    7.9297    0.5701 H   0  0  0  0  0  0
   44.7154    8.8679   -0.1943 H   0  0  0  0  0  0
   44.1251   11.2009    0.3139 H   0  0  0  0  0  0
   46.8979   17.5693    2.5442 H   0  0  0  0  0  0
   47.8293   16.1910    3.1655 H   0  0  0  0  0  0
   47.9445   11.7323    2.2059 H   0  0  0  0  0  0
  1  2  1  0  0  0
  1 28  1  0  0  0
  1 29  1  0  0  0
  1 30  1  0  0  0
  2  3  1  0  0  0
  2  4  1  0  0  0
  2 31  1  0  0  0
  3 32  1  0  0  0
  3 33  1  0  0  0
  3 34  1  0  0  0
  4  5  1  0  0  0
  4 35  1  0  0  0
  5  6  2  0  0  0
  5  7  1  0  0  0
  7  8  1  0  0  0
  7 36  1  0  0  0
  8 27  1  0  0  0
  8  9  2  0  0  0
  9 10  1  0  0  0
  9 37  1  0  0  0
 10 11  2  0  0  0
 10 38  1  0  0  0
 11 12  1  0  0  0
 11 39  1  0  0  0
 12 13  1  0  0  0
 12 27  2  0  0  0
 13 25  2  0  0  0
 13 14  1  0  0  0
 14 15  1  0  0  0
 15 16  1  0  0  0
 15 19  2  0  0  0
 16 17  2  0  0  0
 16 18  1  0  0  0
 19 20  1  0  0  0
 19 25  1  0  0  0
 20 21  1  0  0  0
 21 22  1  0  0  0
 21 40  1  0  0  0
 21 41  1  0  0  0
 22 23  2  0  0  0
 22 24  1  0  0  0
 25 26  1  0  0  0
 27 42  1  0  0  0
M  CHG  2  18  -1  24  -1
M  END
> <s_m_source_file>
/home/user-home/yujie/0_PBCNetv2/data/FEP/PTP1B/inp_ligprep.csv

> <i_m_source_file_index>
23

> <i_lp_mmshare_version>
51139

> <i_f3d_flags>
0

> <s_epik_input>
W0NIM11bQ0hdKFtDSDNdKVtOSF1DKD1PKVtOSF1jMVtjSF1bY0hdW2NIXWMoW2NIXTEpLWMyc2MoQyg9TylbT0hdKWMoYzJCcilPW0NIMl1DKD1PKVtPSF0=

> <s_epik_cmdline>
J2VwaWtfcHl0aG9uJywgJy1waHQnLCAnMi4wJywgJy1waCcsICc3LjQnLCAnLXRuJywgJzgnLCAnLW1hJywgJzIwMCcsICctaW1hZScsICc8aW5maWxlLm1hZT4nLCAnLW9tYWUnLCAnPG91dGZpbGUubWFlPic=

> <r_lp_tautomer_probability>
1

> <r_epik_Ionization_Penalty>
  0.0001

> <r_epik_Ionization_Penalty_Charging>
  0.0001

> <r_epik_Ionization_Penalty_Neutral>
  0.0000

> <r_epik_State_Penalty>
 -0.0000

> <r_epik_Charging_Adjusted_Penalty>
9.21585e-05

> <i_epik_Tot_Q>
-2

> <i_epik_Tot_abs_Q>
2

> <s_lp_Force_Field>
OPLS3e

> <r_lp_Energy>
40.0385

> <b_lp_Chiralities_Consistent>
1

> <s_lp_Variant>
PTP1B_23470-1

> <s_i_glide_gridfile>
PTP1B-001-gridgen

> <i_i_glide_lignum>
24

> <i_i_glide_rotatable_bonds>
9

> <r_i_docking_score>
-6.6556633198344

> <r_i_glide_ligand_efficiency>
-0.246506048882755

> <r_i_glide_ligand_efficiency_sa>
-0.739518145835823

> <r_i_glide_ligand_efficiency_ln>
-1.54932869367197

> <r_i_glide_gscore>
-6.6556633198344

> <r_i_glide_lipo>
-1.44018338884182

> <r_i_glide_hbond>
-1.0048946379934

> <r_i_glide_metal>
-0

> <r_i_glide_rewards>
0.552994820484134

> <r_i_glide_evdw>
-40.2998313903809

> <r_i_glide_ecoul>
-21.7500190734863

> <r_i_glide_erotb>
0.581467361080084

> <r_i_glide_esite>
-0.0675530440214028

> <r_i_glide_emodel>
-101.238249548622

> <r_i_glide_energy>
-62.0498504638672

> <r_i_glide_einternal>
13.5414791107178

> <i_i_glide_confnum>
85

> <i_i_glide_posenum>
99

> <r_i_glide_eff_state_penalty>
-0

$$$$
