PTP1B_23480
                    3D
 Schrodinger Suite 2020-3.
 50 52  0  0  1  0            999 V2000
   51.5329    4.3034    6.7204 C   0  0  0  0  0  0
   50.8835    4.9678    5.6431 O   0  0  0  0  0  0
   51.5800    5.7728    4.8011 C   0  0  0  0  0  0
   52.7561    6.0974    5.0101 O   0  0  0  0  0  0
   50.8117    6.1566    3.6836 N   0  0  0  0  0  0
   51.4965    6.7862    2.5403 C   0  0  0  0  0  0
   50.8199    8.1418    2.2750 C   0  0  0  0  0  0
   49.2928    8.0320    2.0883 C   0  0  0  0  0  0
   48.7989    9.4017    2.0456 N   0  0  0  0  0  0
   47.5554    9.8269    1.5534 C   0  0  0  0  0  0
   46.6571    9.0099    0.8610 C   0  0  0  0  0  0
   45.4465    9.5398    0.4057 C   0  0  0  0  0  0
   45.1152   10.8726    0.6692 C   0  0  0  0  0  0
   46.0041   11.7069    1.3606 C   0  0  0  0  0  0
   45.6798   13.1421    1.6802 C   0  0  0  0  0  0
   44.6435   14.0636    0.6160 S   0  0  0  0  0  0
   44.8121   15.5200    1.5653 C   0  0  0  0  0  0
   44.1508   16.7678    1.1460 C   0  0  0  0  0  0
   43.5985   16.7991    0.0259 O   0  0  0  0  0  0
   44.1782   17.7499    1.9289 O   0  5  0  0  0  0
   45.6149   15.2683    2.6745 C   0  0  0  0  0  0
   45.8918   16.1957    3.6358 O   0  0  0  0  0  0
   47.1264   16.8785    3.4187 C   0  0  0  0  0  0
   47.4651   17.6637    4.6926 C   0  0  0  0  0  0
   48.6056   18.1756    4.7466 O   0  0  0  0  0  0
   46.5991   17.7689    5.5964 O   0  5  0  0  0  0
   46.0933   13.9494    2.7483 C   0  0  0  0  0  0
   47.1975   13.3785    4.2020 Br  0  0  0  0  0  0
   47.2277   11.1655    1.7686 C   0  0  0  0  0  0
   48.6658    7.2891    3.2874 C   0  0  0  0  0  0
   49.3472    5.9322    3.5947 C   0  0  0  0  0  0
   50.8081    3.7163    7.2842 H   0  0  0  0  0  0
   52.3049    3.6269    6.3516 H   0  0  0  0  0  0
   51.9996    5.0166    7.4015 H   0  0  0  0  0  0
   51.4079    6.1132    1.6866 H   0  0  0  0  0  0
   52.5628    6.9345    2.7215 H   0  0  0  0  0  0
   51.2673    8.5845    1.3847 H   0  0  0  0  0  0
   51.0648    8.8216    3.0945 H   0  0  0  0  0  0
   49.0638    7.5279    1.1486 H   0  0  0  0  0  0
   49.2954   10.0653    2.6330 H   0  0  0  0  0  0
   46.8872    7.9725    0.6709 H   0  0  0  0  0  0
   44.7538    8.9082   -0.1308 H   0  0  0  0  0  0
   44.1605   11.2520    0.3362 H   0  0  0  0  0  0
   47.0181   17.5783    2.5878 H   0  0  0  0  0  0
   47.9394   16.1861    3.1872 H   0  0  0  0  0  0
   47.9540   11.7918    2.2593 H   0  0  0  0  0  0
   48.6986    7.9150    4.1807 H   0  0  0  0  0  0
   47.6051    7.1133    3.1002 H   0  0  0  0  0  0
   49.1610    5.1886    2.8183 H   0  0  0  0  0  0
   48.9214    5.5414    4.5206 H   0  0  0  0  0  0
  1  2  1  0  0  0
  1 32  1  0  0  0
  1 33  1  0  0  0
  1 34  1  0  0  0
  2  3  1  0  0  0
  3  4  2  0  0  0
  3  5  1  0  0  0
  5 31  1  0  0  0
  5  6  1  0  0  0
  6  7  1  0  0  0
  6 35  1  0  0  0
  6 36  1  0  0  0
  7  8  1  0  0  0
  7 37  1  0  0  0
  7 38  1  0  0  0
  8  9  1  0  0  0
  8 30  1  0  0  0
  8 39  1  0  0  0
  9 10  1  0  0  0
  9 40  1  0  0  0
 10 29  1  0  0  0
 10 11  2  0  0  0
 11 12  1  0  0  0
 11 41  1  0  0  0
 12 13  2  0  0  0
 12 42  1  0  0  0
 13 14  1  0  0  0
 13 43  1  0  0  0
 14 15  1  0  0  0
 14 29  2  0  0  0
 15 27  2  0  0  0
 15 16  1  0  0  0
 16 17  1  0  0  0
 17 18  1  0  0  0
 17 21  2  0  0  0
 18 19  2  0  0  0
 18 20  1  0  0  0
 21 22  1  0  0  0
 21 27  1  0  0  0
 22 23  1  0  0  0
 23 24  1  0  0  0
 23 44  1  0  0  0
 23 45  1  0  0  0
 24 25  2  0  0  0
 24 26  1  0  0  0
 27 28  1  0  0  0
 29 46  1  0  0  0
 30 31  1  0  0  0
 30 47  1  0  0  0
 30 48  1  0  0  0
 31 49  1  0  0  0
 31 50  1  0  0  0
M  CHG  2  20  -1  26  -1
M  END
> <s_m_source_file>
/home/user-home/yujie/0_PBCNetv2/data/FEP/PTP1B/inp_ligprep.csv

> <i_m_source_file_index>
19

> <i_lp_mmshare_version>
51139

> <i_f3d_flags>
0

> <s_epik_input>
W0NIM11PQyg9TylOMVtDSDJdW0NIMl1bQ0hdKFtDSDJdW0NIMl0xKVtOSF1jMltjSF1bY0hdW2NIXWMoW2NIXTIpLWMzc2MoQyg9TylbT0hdKWMoYzNCcilPW0NIMl1DKD1PKVtPSF0=

> <s_epik_cmdline>
J2VwaWtfcHl0aG9uJywgJy1waHQnLCAnMi4wJywgJy1waCcsICc3LjQnLCAnLXRuJywgJzgnLCAnLW1hJywgJzIwMCcsICctaW1hZScsICc8aW5maWxlLm1hZT4nLCAnLW9tYWUnLCAnPG91dGZpbGUubWFlPic=

> <r_epik_Ionization_Penalty>
  0.0006

> <r_epik_Ionization_Penalty_Charging>
  0.0001

> <r_epik_Ionization_Penalty_Neutral>
  0.0005

> <r_epik_State_Penalty>
  0.0003

> <r_epik_Charging_Adjusted_Penalty>
0.000384578

> <i_epik_Tot_Q>
-2

> <i_epik_Tot_abs_Q>
2

> <s_epik_Chemistry_Notes>
This compound has an ester and may undergo hydrolysis at high or low pH.

> <s_lp_Force_Field>
OPLS3e

> <r_lp_Energy>
40.1798

> <b_lp_Chiralities_Consistent>
1

> <s_lp_Variant>
PTP1B_23480-1

> <s_i_glide_gridfile>
PTP1B-001-gridgen

> <i_i_glide_lignum>
20

> <i_i_glide_rotatable_bonds>
9

> <r_i_docking_score>
-8.53500482057567

> <r_i_glide_ligand_efficiency>
-0.275322736147602

> <r_i_glide_ligand_efficiency_sa>
-0.864893515507527

> <r_i_glide_ligand_efficiency_ln>
-1.92490515352462

> <r_i_glide_gscore>
-8.53529723957567

> <r_i_glide_lipo>
-1.48950446476511

> <r_i_glide_hbond>
-1.25600522722665

> <r_i_glide_metal>
-0

> <r_i_glide_rewards>
-0.0874985846588066

> <r_i_glide_evdw>
-43.5651054382324

> <r_i_glide_ecoul>
-26.0500431060791

> <r_i_glide_erotb>
0.470238758970785

> <r_i_glide_esite>
-0.0867659840723976

> <r_i_glide_emodel>
-126.913338676111

> <r_i_glide_energy>
-69.6151485443115

> <r_i_glide_einternal>
13.5743789672852

> <i_i_glide_confnum>
196

> <i_i_glide_posenum>
140

> <r_i_glide_eff_state_penalty>
0.000292419

$$$$
