PTP1B_23474
                    3D
 Schrodinger Suite 2020-3.
 48 50  0  0  1  0            999 V2000
   46.4812   17.7767    5.5573 O   0  0  0  0  0  0
   47.3608   17.6736    4.6673 C   0  0  0  0  0  0
   48.5038   18.1767    4.7465 O   0  5  0  0  0  0
   47.0321   16.9042    3.3817 C   0  0  0  0  0  0
   45.7910   16.2285    3.5826 O   0  0  0  0  0  0
   45.5110   15.3214    2.6047 C   0  0  0  0  0  0
   44.7172   15.5987    1.4956 C   0  0  0  0  0  0
   44.0583   16.8516    1.1041 C   0  0  0  0  0  0
   43.9992   17.7770    1.9465 O   0  0  0  0  0  0
   43.5986   16.9528   -0.0530 O   0  5  0  0  0  0
   44.5388   14.1697    0.5149 S   0  0  0  0  0  0
   45.5562   13.2222    1.5737 C   0  0  0  0  0  0
   45.8485   11.7883    1.2482 C   0  0  0  0  0  0
   44.9130   10.9830    0.5877 C   0  0  0  0  0  0
   45.1925    9.6417    0.3259 C   0  0  0  0  0  0
   46.3984    9.0816    0.7469 C   0  0  0  0  0  0
   47.3434    9.8665    1.4207 C   0  0  0  0  0  0
   48.5606    9.3773    1.9251 N   0  0  0  0  0  0
   49.0350    8.0103    1.7281 C   0  0  0  0  0  0
   50.0168    7.8430    0.5458 C   0  0  0  0  0  0
   50.6082    6.4137    0.5221 C   0  0  0  0  0  0
   51.6559    6.2494   -0.5976 C   0  0  0  0  0  0
   51.0694    6.6163   -1.9773 C   0  0  0  0  0  0
   50.3837    7.9994   -1.9784 C   0  0  0  0  0  0
   49.3634    8.1259   -0.8291 C   0  0  0  0  0  0
   47.0675   11.2164    1.6324 C   0  0  0  0  0  0
   45.9776   13.9999    2.6560 C   0  0  0  0  0  0
   47.0666   13.3772    4.0972 Br  0  0  0  0  0  0
   46.9360   17.6125    2.5567 H   0  0  0  0  0  0
   47.8422   16.2081    3.1532 H   0  0  0  0  0  0
   43.9609   11.3909    0.2795 H   0  0  0  0  0  0
   44.4665    9.0294   -0.1877 H   0  0  0  0  0  0
   46.5753    8.0373    0.5456 H   0  0  0  0  0  0
   49.1998   10.0419    2.3470 H   0  0  0  0  0  0
   49.5172    7.6948    2.6543 H   0  0  0  0  0  0
   48.2013    7.3160    1.6241 H   0  0  0  0  0  0
   50.8419    8.5462    0.6751 H   0  0  0  0  0  0
   51.0615    6.1831    1.4873 H   0  0  0  0  0  0
   49.8076    5.6798    0.4103 H   0  0  0  0  0  0
   52.5187    6.8834   -0.3898 H   0  0  0  0  0  0
   52.0277    5.2235   -0.6132 H   0  0  0  0  0  0
   51.8526    6.5872   -2.7355 H   0  0  0  0  0  0
   50.3406    5.8574   -2.2679 H   0  0  0  0  0  0
   51.1389    8.7814   -1.8863 H   0  0  0  0  0  0
   49.8894    8.1662   -2.9363 H   0  0  0  0  0  0
   48.5214    7.4498   -0.9878 H   0  0  0  0  0  0
   48.9209    9.1229   -0.8392 H   0  0  0  0  0  0
   47.8188   11.8214    2.1130 H   0  0  0  0  0  0
  1  2  2  0  0  0
  2  3  1  0  0  0
  2  4  1  0  0  0
  4  5  1  0  0  0
  4 29  1  0  0  0
  4 30  1  0  0  0
  5  6  1  0  0  0
  6 27  1  0  0  0
  6  7  2  0  0  0
  7  8  1  0  0  0
  7 11  1  0  0  0
  8  9  2  0  0  0
  8 10  1  0  0  0
 11 12  1  0  0  0
 12 13  1  0  0  0
 12 27  2  0  0  0
 13 26  1  0  0  0
 13 14  2  0  0  0
 14 15  1  0  0  0
 14 31  1  0  0  0
 15 16  2  0  0  0
 15 32  1  0  0  0
 16 17  1  0  0  0
 16 33  1  0  0  0
 17 18  1  0  0  0
 17 26  2  0  0  0
 18 19  1  0  0  0
 18 34  1  0  0  0
 19 20  1  0  0  0
 19 35  1  0  0  0
 19 36  1  0  0  0
 20 25  1  0  0  0
 20 21  1  0  0  0
 20 37  1  0  0  0
 21 22  1  0  0  0
 21 38  1  0  0  0
 21 39  1  0  0  0
 22 23  1  0  0  0
 22 40  1  0  0  0
 22 41  1  0  0  0
 23 24  1  0  0  0
 23 42  1  0  0  0
 23 43  1  0  0  0
 24 25  1  0  0  0
 24 44  1  0  0  0
 24 45  1  0  0  0
 25 46  1  0  0  0
 25 47  1  0  0  0
 26 48  1  0  0  0
 27 28  1  0  0  0
M  CHG  2   3  -1  10  -1
M  END
> <s_m_source_file>
/home/user-home/yujie/0_PBCNetv2/data/FEP/PTP1B/inp_ligprep.csv

> <i_m_source_file_index>
16

> <i_lp_mmshare_version>
51139

> <i_f3d_flags>
0

> <s_epik_input>
Tz1DKFtPSF0pW0NIMl1PYzFjKEMoPU8pW09IXSlzYyhjMUJyKS1jMltjSF1bY0hdW2NIXWMoW2NIXTIpW05IXVtDSDJdW0NIXTNbQ0gyXVtDSDJdW0NIMl1bQ0gyXVtDSDJdMw==

> <s_epik_cmdline>
J2VwaWtfcHl0aG9uJywgJy1waHQnLCAnMi4wJywgJy1waCcsICc3LjQnLCAnLXRuJywgJzgnLCAnLW1hJywgJzIwMCcsICctaW1hZScsICc8aW5maWxlLm1hZT4nLCAnLW9tYWUnLCAnPG91dGZpbGUubWFlPic=

> <r_epik_Ionization_Penalty>
  0.0033

> <r_epik_Ionization_Penalty_Charging>
  0.0001

> <r_epik_Ionization_Penalty_Neutral>
  0.0032

> <r_epik_State_Penalty>
  0.0023

> <r_epik_Charging_Adjusted_Penalty>
0.00235972

> <i_epik_Tot_Q>
-2

> <i_epik_Tot_abs_Q>
2

> <s_lp_Force_Field>
OPLS3e

> <r_lp_Energy>
40.2525

> <b_lp_Chiralities_Consistent>
1

> <s_lp_Variant>
PTP1B_23474-1

> <s_i_glide_gridfile>
PTP1B-001-gridgen

> <i_i_glide_lignum>
17

> <i_i_glide_rotatable_bonds>
8

> <r_i_docking_score>
-7.59734568911426

> <r_i_glide_ligand_efficiency>
-0.271333774611224

> <r_i_glide_ligand_efficiency_sa>
-0.823929146766672

> <r_i_glide_ligand_efficiency_ln>
-1.7536904528099

> <r_i_glide_gscore>
-7.59961324911426

> <r_i_glide_lipo>
-1.3563330148548

> <r_i_glide_hbond>
-1.20872853619758

> <r_i_glide_metal>
-0

> <r_i_glide_rewards>
-0.240363910337007

> <r_i_glide_evdw>
-33.7926445007324

> <r_i_glide_ecoul>
-23.9070262908936

> <r_i_glide_erotb>
0.55657845659928

> <r_i_glide_esite>
-0.075080075653504

> <r_i_glide_emodel>
-107.013420857075

> <r_i_glide_energy>
-57.699670791626

> <r_i_glide_einternal>
11.4918613433838

> <i_i_glide_confnum>
188

> <i_i_glide_posenum>
249

> <r_i_glide_eff_state_penalty>
0.00226756

$$$$
