PTP1B_23486
                    3D
 Schrodinger Suite 2024-1.
 60 63  0  0  1  0            999 V2000
   48.4524   18.1771    4.7465 O   0  0  0  0  0  0
   47.3103   17.6729    4.6676 C   0  0  0  0  0  0
   46.4181   17.7769    5.5465 O   0  5  0  0  0  0
   46.9933   16.8878    3.3940 C   0  0  0  0  0  0
   45.8050   16.1382    3.5793 O   0  0  0  0  0  0
   45.5274   15.2610    2.5965 C   0  0  0  0  0  0
   44.7302   15.5724    1.5258 C   0  0  0  0  0  0
   44.0678   16.8323    1.1294 C   0  0  0  0  0  0
   43.9984   17.7769    1.9463 O   0  0  0  0  0  0
   43.5987   16.9573   -0.0208 O   0  5  0  0  0  0
   44.4951   14.1843    0.4944 S   0  0  0  0  0  0
   45.5253   13.1818    1.4967 C   0  0  0  0  0  0
   45.7566   11.7837    1.1024 C   0  0  0  0  0  0
   44.8439   11.1101    0.2572 C   0  0  0  0  0  0
   45.0864    9.7912   -0.1654 C   0  0  0  0  0  0
   46.2357    9.1105    0.2713 C   0  0  0  0  0  0
   47.1376    9.7364    1.1619 C   0  0  0  0  0  0
   48.2728    9.0981    1.6901 N   0  0  0  0  0  0
   48.7369    7.8077    1.1939 C   0  0  0  0  0  0
   50.2053    7.5707    1.5740 C   0  0  0  0  0  0
   50.7176    6.2471    0.9812 C   0  0  0  0  0  0
   49.8483    5.1023    1.3310 N   0  0  0  0  0  0
   50.3872    3.8746    2.4321 S   0  0  0  0  0  0
   49.6107    2.6593    2.1453 O   0  0  0  0  0  0
   51.8569    3.8364    2.3868 O   0  0  0  0  0  0
   49.8651    4.5128    4.0780 C   0  0  0  0  0  0
   50.3140    3.5499    5.1608 C   0  0  0  0  0  0
   51.4497    3.8386    5.9475 C   0  0  0  0  0  0
   51.8612    2.9377    6.9499 C   0  0  0  0  0  0
   51.1403    1.7482    7.1710 C   0  0  0  0  0  0
   50.0050    1.4572    6.3911 C   0  0  0  0  0  0
   49.5946    2.3561    5.3876 C   0  0  0  0  0  0
   48.4015    5.3043    1.1254 C   0  0  0  0  0  0
   47.9241    6.6267    1.7490 C   0  0  0  0  0  0
   46.8971   11.0703    1.5450 C   0  0  0  0  0  0
   45.9946   13.9098    2.5674 C   0  0  0  0  0  0
   47.0123   13.3769    3.8279 Cl  0  0  0  0  0  0
   46.8718   17.5834    2.5612 H   0  0  0  0  0  0
   47.8355   16.2333    3.1591 H   0  0  0  0  0  0
   43.9485   11.5996   -0.0948 H   0  0  0  0  0  0
   44.3918    9.3026   -0.8318 H   0  0  0  0  0  0
   46.3982    8.1074   -0.0877 H   0  0  0  0  0  0
   48.8626    9.6072    2.3364 H   0  0  0  0  0  0
   48.6610    7.8195    0.1051 H   0  0  0  0  0  0
   50.8238    8.3929    1.2111 H   0  0  0  0  0  0
   50.3178    7.5578    2.6595 H   0  0  0  0  0  0
   50.7487    6.3253   -0.1063 H   0  0  0  0  0  0
   51.7428    6.0650    1.3013 H   0  0  0  0  0  0
   50.2974    5.5012    4.2209 H   0  0  0  0  0  0
   48.7785    4.6084    4.0852 H   0  0  0  0  0  0
   52.0141    4.7440    5.7787 H   0  0  0  0  0  0
   52.7352    3.1525    7.5459 H   0  0  0  0  0  0
   51.4586    1.0563    7.9387 H   0  0  0  0  0  0
   49.4571    0.5397    6.5572 H   0  0  0  0  0  0
   48.7251    2.1233    4.7885 H   0  0  0  0  0  0
   48.1991    5.3028    0.0529 H   0  0  0  0  0  0
   47.8438    4.4673    1.5478 H   0  0  0  0  0  0
   48.0157    6.5844    2.8349 H   0  0  0  0  0  0
   46.8617    6.7490    1.5463 H   0  0  0  0  0  0
   47.6295   11.5448    2.1770 H   0  0  0  0  0  0
  1  2  2  0  0  0
  2  3  1  0  0  0
  2  4  1  0  0  0
  4  5  1  0  0  0
  4 38  1  0  0  0
  4 39  1  0  0  0
  5  6  1  0  0  0
  6 36  1  0  0  0
  6  7  2  0  0  0
  7  8  1  0  0  0
  7 11  1  0  0  0
  8  9  2  0  0  0
  8 10  1  0  0  0
 11 12  1  0  0  0
 12 13  1  0  0  0
 12 36  2  0  0  0
 13 35  1  0  0  0
 13 14  2  0  0  0
 14 15  1  0  0  0
 14 40  1  0  0  0
 15 16  2  0  0  0
 15 41  1  0  0  0
 16 17  1  0  0  0
 16 42  1  0  0  0
 17 18  1  0  0  0
 17 35  2  0  0  0
 18 19  1  0  0  0
 18 43  1  0  0  0
 19 34  1  0  0  0
 19 20  1  0  0  0
 19 44  1  0  0  0
 20 21  1  0  0  0
 20 45  1  0  0  0
 20 46  1  0  0  0
 21 22  1  0  0  0
 21 47  1  0  0  0
 21 48  1  0  0  0
 22 23  1  0  0  0
 22 33  1  0  0  0
 23 24  2  0  0  0
 23 25  2  0  0  0
 23 26  1  0  0  0
 26 27  1  0  0  0
 26 49  1  0  0  0
 26 50  1  0  0  0
 27 32  1  0  0  0
 27 28  2  0  0  0
 28 29  1  0  0  0
 28 51  1  0  0  0
 29 30  2  0  0  0
 29 52  1  0  0  0
 30 31  1  0  0  0
 30 53  1  0  0  0
 31 32  2  0  0  0
 31 54  1  0  0  0
 32 55  1  0  0  0
 33 34  1  0  0  0
 33 56  1  0  0  0
 33 57  1  0  0  0
 34 58  1  0  0  0
 34 59  1  0  0  0
 35 60  1  0  0  0
 36 37  1  0  0  0
M  CHG  2   3  -1  10  -1
M  END
> <Tot Q>
-2

> <flags>
0

> <Source File Index>
1

> <i_f3d_flags>
0

> <subgroup collapsed>
0

> <Ionization Penalty>
0.0011

> <State Penalty>
0.0009

> <docking score>
-8.31057

> <glide emodel>
-140.671

> <glide gscore>
-8.31147

> <Source File>
glide-dock_SP_5_pv.maegz

> <Source Path>
C:\Users\yujie\Documents\Schrodinger\glide-dock_SP_5

> <entry id>
3931

> <job name>
glide-dock_SP_5

> <subgroup title>
glide-dock_SP_5_pv

> <subgroupid>
glide-dock_SP_5_pv

$$$$
