PTP1B_23482
                    3D
 Schrodinger Suite 2020-3.
 50 52  0  0  1  0            999 V2000
   52.4245    3.9649    4.1707 C   0  0  0  0  0  0
   51.9669    5.4388    5.2459 S   0  0  0  0  0  0
   53.2014    6.1737    5.5444 O   0  0  0  0  0  0
   51.1260    4.9632    6.3460 O   0  0  0  0  0  0
   50.9899    6.4696    4.1808 N   0  0  2  0  0  0
   51.6325    6.8593    2.9043 C   0  0  0  0  0  0
   50.9541    8.1215    2.3426 C   0  0  0  0  0  0
   49.4067    8.0099    2.2584 C   0  0  0  0  0  0
   48.9197    9.3769    2.1158 N   0  0  0  0  0  0
   47.6690    9.7611    1.6086 C   0  0  0  0  0  0
   46.7986    8.9091    0.9233 C   0  0  0  0  0  0
   45.5817    9.3992    0.4443 C   0  0  0  0  0  0
   45.2143   10.7279    0.6792 C   0  0  0  0  0  0
   46.0725   11.5965    1.3672 C   0  0  0  0  0  0
   45.7112   13.0306    1.6496 C   0  0  0  0  0  0
   44.6905   13.8924    0.5281 S   0  0  0  0  0  0
   44.7771   15.3742    1.4470 C   0  0  0  0  0  0
   44.0789   16.5769    0.9620 C   0  0  0  0  0  0
   43.5984   16.5611   -0.1916 O   0  0  0  0  0  0
   44.0193   17.5746    1.7193 O   0  5  0  0  0  0
   45.5506   15.1802    2.5918 C   0  0  0  0  0  0
   45.7617   16.1366    3.5463 O   0  0  0  0  0  0
   46.9887   16.8497    3.3726 C   0  0  0  0  0  0
   47.2824   17.6402    4.6593 C   0  0  0  0  0  0
   46.3986   17.7296    5.5468 O   0  0  0  0  0  0
   48.4094   18.1771    4.7465 O   0  5  0  0  0  0
   46.0756   13.8790    2.7054 C   0  0  0  0  0  0
   47.1759   13.3768    4.1851 Br  0  0  0  0  0  0
   47.3021   11.0935    1.8008 C   0  0  0  0  0  0
   48.7823    7.3774    3.5350 C   0  0  0  0  0  0
   49.5537    6.1291    4.0260 C   0  0  0  0  0  0
   53.0065    3.2676    4.7724 H   0  0  0  0  0  0
   51.5099    3.4845    3.8258 H   0  0  0  0  0  0
   53.0178    4.3086    3.3251 H   0  0  0  0  0  0
   51.4645    6.0661    2.1733 H   0  0  0  0  0  0
   52.6999    7.0284    3.0561 H   0  0  0  0  0  0
   51.3568    8.3320    1.3512 H   0  0  0  0  0  0
   51.2496    8.9681    2.9672 H   0  0  0  0  0  0
   49.1120    7.4245    1.3862 H   0  0  0  0  0  0
   49.3442   10.0502    2.7477 H   0  0  0  0  0  0
   47.0531    7.8747    0.7496 H   0  0  0  0  0  0
   44.9125    8.7415   -0.0905 H   0  0  0  0  0  0
   44.2560   11.0784    0.3243 H   0  0  0  0  0  0
   46.8860   17.5517    2.5435 H   0  0  0  0  0  0
   47.8235   16.1786    3.1577 H   0  0  0  0  0  0
   47.9979   11.7508    2.2933 H   0  0  0  0  0  0
   48.7424    8.1071    4.3467 H   0  0  0  0  0  0
   47.7453    7.1022    3.3357 H   0  0  0  0  0  0
   49.4514    5.3696    3.2490 H   0  0  0  0  0  0
   49.1433    5.7743    4.9723 H   0  0  0  0  0  0
  1  2  1  0  0  0
  1 32  1  0  0  0
  1 33  1  0  0  0
  1 34  1  0  0  0
  2  3  2  0  0  0
  2  4  2  0  0  0
  2  5  1  0  0  0
  5 31  1  0  0  0
  5  6  1  0  0  0
  6  7  1  0  0  0
  6 35  1  0  0  0
  6 36  1  0  0  0
  7  8  1  0  0  0
  7 37  1  0  0  0
  7 38  1  0  0  0
  8  9  1  0  0  0
  8 30  1  0  0  0
  8 39  1  0  0  0
  9 10  1  0  0  0
  9 40  1  0  0  0
 10 29  1  0  0  0
 10 11  2  0  0  0
 11 12  1  0  0  0
 11 41  1  0  0  0
 12 13  2  0  0  0
 12 42  1  0  0  0
 13 14  1  0  0  0
 13 43  1  0  0  0
 14 15  1  0  0  0
 14 29  2  0  0  0
 15 27  2  0  0  0
 15 16  1  0  0  0
 16 17  1  0  0  0
 17 18  1  0  0  0
 17 21  2  0  0  0
 18 19  2  0  0  0
 18 20  1  0  0  0
 21 22  1  0  0  0
 21 27  1  0  0  0
 22 23  1  0  0  0
 23 24  1  0  0  0
 23 44  1  0  0  0
 23 45  1  0  0  0
 24 25  2  0  0  0
 24 26  1  0  0  0
 27 28  1  0  0  0
 29 46  1  0  0  0
 30 31  1  0  0  0
 30 47  1  0  0  0
 30 48  1  0  0  0
 31 49  1  0  0  0
 31 50  1  0  0  0
M  CHG  2  20  -1  26  -1
M  END
> <s_m_source_file>
/home/user-home/yujie/0_PBCNetv2/data/FEP/PTP1B/inp_ligprep.csv

> <i_m_source_file_index>
17

> <i_lp_mmshare_version>
51139

> <i_f3d_flags>
0

> <s_epik_input>
W0NIM11TKD1PKSg9TylOMVtDSDJdW0NIMl1bQ0hdKFtDSDJdW0NIMl0xKVtOSF1jMltjSF1bY0hdW2NIXWMoW2NIXTIpLWMzc2MoQyg9TylbT0hdKWMoYzNCcilPW0NIMl1DKD1PKVtPSF0=

> <s_epik_cmdline>
J2VwaWtfcHl0aG9uJywgJy1waHQnLCAnMi4wJywgJy1waCcsICc3LjQnLCAnLXRuJywgJzgnLCAnLW1hJywgJzIwMCcsICctaW1hZScsICc8aW5maWxlLm1hZT4nLCAnLW9tYWUnLCAnPG91dGZpbGUubWFlPic=

> <r_epik_Ionization_Penalty>
  0.0005

> <r_epik_Ionization_Penalty_Charging>
  0.0001

> <r_epik_Ionization_Penalty_Neutral>
  0.0004

> <r_epik_State_Penalty>
  0.0002

> <r_epik_Charging_Adjusted_Penalty>
0.000318142

> <i_epik_Tot_Q>
-2

> <i_epik_Tot_abs_Q>
2

> <s_lp_Force_Field>
OPLS3e

> <r_lp_Energy>
51.4852

> <b_lp_Chiralities_Consistent>
1

> <s_lp_Variant>
PTP1B_23482-1

> <s_i_glide_gridfile>
PTP1B-001-gridgen

> <i_i_glide_lignum>
18

> <i_i_glide_rotatable_bonds>
8

> <r_i_docking_score>
-8.82289777193579

> <r_i_glide_ligand_efficiency>
-0.284609605546316

> <r_i_glide_ligand_efficiency_sa>
-0.894067107324537

> <r_i_glide_ligand_efficiency_ln>
-1.9898338369157

> <r_i_glide_gscore>
-8.82312375493579

> <r_i_glide_lipo>
-1.59393920225174

> <r_i_glide_hbond>
-1.15828311632183

> <r_i_glide_metal>
-0

> <r_i_glide_rewards>
-0.0599731437673957

> <r_i_glide_evdw>
-42.5838279724121

> <r_i_glide_ecoul>
-30.6843109130859

> <r_i_glide_erotb>
0.365099236147871

> <r_i_glide_esite>
-0.246836130122089

> <r_i_glide_emodel>
-135.612928284963

> <r_i_glide_energy>
-73.268138885498

> <r_i_glide_einternal>
13.6851921081543

> <i_i_glide_confnum>
78

> <i_i_glide_posenum>
311

> <r_i_glide_eff_state_penalty>
0.000225983

$$$$
