PTP1B_23483
                    3D
 Schrodinger Suite 2020-3.
 57 60  0  0  1  0            999 V2000
   48.4149   18.1771    4.7465 O   0  0  0  0  0  0
   47.2813   17.6506    4.6594 C   0  0  0  0  0  0
   46.3984   17.7504    5.5468 O   0  5  0  0  0  0
   46.9845   16.8586    3.3744 C   0  0  0  0  0  0
   45.7551   16.1538    3.5467 O   0  0  0  0  0  0
   45.5432   15.1910    2.5983 C   0  0  0  0  0  0
   44.7664   15.3836    1.4551 C   0  0  0  0  0  0
   44.0696   16.5822    0.9712 C   0  0  0  0  0  0
   44.0104   17.5791    1.7310 O   0  0  0  0  0  0
   43.5982   16.5713   -0.1860 O   0  5  0  0  0  0
   44.6752   13.9097    0.5335 S   0  0  0  0  0  0
   45.6955   13.0454    1.6536 C   0  0  0  0  0  0
   46.0486   11.6170    1.3590 C   0  0  0  0  0  0
   45.1782   10.7711    0.6565 C   0  0  0  0  0  0
   45.5324    9.4472    0.3890 C   0  0  0  0  0  0
   46.7439    8.9386    0.8596 C   0  0  0  0  0  0
   47.6213    9.7647    1.5725 C   0  0  0  0  0  0
   48.8612    9.3422    2.0747 N   0  0  0  0  0  0
   49.1836    7.9546    2.4056 C   0  0  0  0  0  0
   50.4429    7.5411    1.6015 C   0  0  0  0  0  0
   51.0863    6.2484    2.1442 C   0  0  0  0  0  0
   51.3408    6.4125    3.5946 N   0  0  1  0  0  0
   52.6625    5.4759    4.3275 S   0  0  0  0  0  0
   53.6393    5.1727    3.2758 O   0  0  0  0  0  0
   53.0819    6.1788    5.5465 O   0  0  0  0  0  0
   51.9287    3.9215    4.8470 C   0  0  0  0  0  0
   51.6877    2.9220    3.9019 C   0  0  0  0  0  0
   51.1192    1.7156    4.3038 C   0  0  0  0  0  0
   50.7944    1.5116    5.6447 C   0  0  0  0  0  0
   51.0314    2.5078    6.5903 C   0  0  0  0  0  0
   51.5994    3.7158    6.1915 C   0  0  0  0  0  0
   50.1016    6.5793    4.3866 C   0  0  0  0  0  0
   49.3625    7.8624    3.9462 C   0  0  0  0  0  0
   47.2761   11.0982    1.7840 C   0  0  0  0  0  0
   46.0632   13.8884    2.7124 C   0  0  0  0  0  0
   47.1586   13.3768    4.1921 Br  0  0  0  0  0  0
   46.8866   17.5614    2.5458 H   0  0  0  0  0  0
   47.8165   16.1834    3.1612 H   0  0  0  0  0  0
   44.2213   11.1357    0.3125 H   0  0  0  0  0  0
   44.8596    8.8090   -0.1653 H   0  0  0  0  0  0
   46.9918    7.9117    0.6452 H   0  0  0  0  0  0
   49.4606   10.0504    2.4895 H   0  0  0  0  0  0
   48.3675    7.2939    2.1126 H   0  0  0  0  0  0
   50.1758    7.4002    0.5531 H   0  0  0  0  0  0
   51.1881    8.3387    1.6157 H   0  0  0  0  0  0
   50.3721    5.4352    2.0030 H   0  0  0  0  0  0
   52.0126    6.0209    1.6188 H   0  0  0  0  0  0
   51.9414    3.0763    2.8623 H   0  0  0  0  0  0
   50.9356    0.9356    3.5800 H   0  0  0  0  0  0
   50.3582    0.5707    5.9537 H   0  0  0  0  0  0
   50.7832    2.3367    7.6287 H   0  0  0  0  0  0
   51.7939    4.4815    6.9280 H   0  0  0  0  0  0
   49.4419    5.7380    4.1663 H   0  0  0  0  0  0
   50.3368    6.5769    5.4491 H   0  0  0  0  0  0
   49.9079    8.7265    4.3316 H   0  0  0  0  0  0
   48.3840    7.8940    4.4262 H   0  0  0  0  0  0
   47.9831   11.7358    2.2899 H   0  0  0  0  0  0
  1  2  2  0  0  0
  2  3  1  0  0  0
  2  4  1  0  0  0
  4  5  1  0  0  0
  4 37  1  0  0  0
  4 38  1  0  0  0
  5  6  1  0  0  0
  6 35  1  0  0  0
  6  7  2  0  0  0
  7  8  1  0  0  0
  7 11  1  0  0  0
  8  9  2  0  0  0
  8 10  1  0  0  0
 11 12  1  0  0  0
 12 13  1  0  0  0
 12 35  2  0  0  0
 13 34  1  0  0  0
 13 14  2  0  0  0
 14 15  1  0  0  0
 14 39  1  0  0  0
 15 16  2  0  0  0
 15 40  1  0  0  0
 16 17  1  0  0  0
 16 41  1  0  0  0
 17 18  1  0  0  0
 17 34  2  0  0  0
 18 19  1  0  0  0
 18 42  1  0  0  0
 19 33  1  0  0  0
 19 20  1  0  0  0
 19 43  1  0  0  0
 20 21  1  0  0  0
 20 44  1  0  0  0
 20 45  1  0  0  0
 21 22  1  0  0  0
 21 46  1  0  0  0
 21 47  1  0  0  0
 22 23  1  0  0  0
 22 32  1  0  0  0
 23 24  2  0  0  0
 23 25  2  0  0  0
 23 26  1  0  0  0
 26 31  1  0  0  0
 26 27  2  0  0  0
 27 28  1  0  0  0
 27 48  1  0  0  0
 28 29  2  0  0  0
 28 49  1  0  0  0
 29 30  1  0  0  0
 29 50  1  0  0  0
 30 31  2  0  0  0
 30 51  1  0  0  0
 31 52  1  0  0  0
 32 33  1  0  0  0
 32 53  1  0  0  0
 32 54  1  0  0  0
 33 55  1  0  0  0
 33 56  1  0  0  0
 34 57  1  0  0  0
 35 36  1  0  0  0
M  CHG  2   3  -1  10  -1
M  END
> <s_m_source_file>
/home/user-home/yujie/0_PBCNetv2/data/FEP/PTP1B/inp_ligprep.csv

> <i_m_source_file_index>
6

> <i_lp_mmshare_version>
51139

> <i_f3d_flags>
0

> <s_epik_input>
Tz1DKFtPSF0pW0NIMl1PYzFjKEMoPU8pW09IXSlzYyhjMUJyKS1jMltjSF1bY0hdW2NIXWMoW2NIXTIpW05IXVtDSF0zW0NIMl1bQ0gyXU4oW0NIMl1bQ0gyXTMpUyg9TykoPU8pYzRbY0hdW2NIXVtjSF1bY0hdW2NIXTQ=

> <s_epik_cmdline>
J2VwaWtfcHl0aG9uJywgJy1waHQnLCAnMi4wJywgJy1waCcsICc3LjQnLCAnLXRuJywgJzgnLCAnLW1hJywgJzIwMCcsICctaW1hZScsICc8aW5maWxlLm1hZT4nLCAnLW9tYWUnLCAnPG91dGZpbGUubWFlPic=

> <r_epik_Ionization_Penalty>
  0.0004

> <r_epik_Ionization_Penalty_Charging>
  0.0001

> <r_epik_Ionization_Penalty_Neutral>
  0.0004

> <r_epik_State_Penalty>
  0.0002

> <r_epik_Charging_Adjusted_Penalty>
0.000308301

> <i_epik_Tot_Q>
-2

> <i_epik_Tot_abs_Q>
2

> <s_lp_Force_Field>
OPLS3e

> <r_lp_Energy>
60.8672

> <b_lp_Chiralities_Consistent>
1

> <s_lp_Variant>
PTP1B_23483-1

> <s_i_glide_gridfile>
PTP1B-001-gridgen

> <i_i_glide_lignum>
7

> <i_i_glide_rotatable_bonds>
9

> <r_i_docking_score>
-8.72981354712823

> <r_i_glide_ligand_efficiency>
-0.242494820753562

> <r_i_glide_ligand_efficiency_sa>
-0.800700255405563

> <r_i_glide_ligand_efficiency_ln>
-1.90460946367743

> <r_i_glide_gscore>
-8.73002968912823

> <r_i_glide_lipo>
-1.52813619833997

> <r_i_glide_hbond>
-1.15188066543885

> <r_i_glide_metal>
-0

> <r_i_glide_rewards>
0.230740270763617

> <r_i_glide_evdw>
-47.8238754272461

> <r_i_glide_ecoul>
-27.4762268066406

> <r_i_glide_erotb>
0.305429961433148

> <r_i_glide_esite>
-0.194989286183867

> <r_i_glide_emodel>
-137.462027987147

> <r_i_glide_energy>
-75.3001022338867

> <r_i_glide_einternal>
12.33509349823

> <i_i_glide_confnum>
52

> <i_i_glide_posenum>
210

> <r_i_glide_eff_state_penalty>
0.000216142

$$$$
