PTP1B_23485
                    3D
 Schrodinger Suite 2024-1.
 63 66  0  0  1  0            999 V2000
   47.0137   13.4917    3.7769 C   0  0  0  0  0  0
   46.0818   13.9713    2.6943 C   0  0  0  0  0  0
   45.6039   13.2128    1.6417 C   0  0  0  0  0  0
   45.8363   11.8117    1.2523 C   0  0  0  0  0  0
   44.8877   11.1198    0.4616 C   0  0  0  0  0  0
   45.1348    9.8132    0.0060 C   0  0  0  0  0  0
   46.3269    9.1587    0.3596 C   0  0  0  0  0  0
   47.2626    9.7960    1.2060 C   0  0  0  0  0  0
   48.4437    9.1832    1.6594 N   0  0  0  0  0  0
   48.8231    7.8390    1.2430 C   0  0  0  0  0  0
   50.2842    7.5277    1.5954 C   0  0  0  0  0  0
   50.6906    6.1425    1.0590 C   0  0  0  0  0  0
   49.7406    5.0774    1.4533 N   0  0  0  0  0  0
   50.2211    3.7798    2.4973 S   0  0  0  0  0  0
   49.3540    2.6314    2.1936 O   0  0  0  0  0  0
   51.6822    3.6392    2.4137 O   0  0  0  0  0  0
   49.7811    4.4027    4.1711 C   0  0  0  0  0  0
   50.1852    3.3843    5.2211 C   0  0  0  0  0  0
   51.3267    3.6014    6.0217 C   0  0  0  0  0  0
   51.6920    2.6594    7.0032 C   0  0  0  0  0  0
   50.9205    1.4960    7.1855 C   0  0  0  0  0  0
   49.7808    1.2743    6.3907 C   0  0  0  0  0  0
   49.4126    2.2172    5.4117 C   0  0  0  0  0  0
   48.3072    5.3822    1.2975 C   0  0  0  0  0  0
   47.9592    6.7522    1.8969 C   0  0  0  0  0  0
   47.0134   11.1182    1.6210 C   0  0  0  0  0  0
   44.5620   14.1685    0.6071 S   0  0  0  0  0  0
   44.7783   15.5841    1.5887 C   0  0  0  0  0  0
   44.0851   16.8148    1.1524 C   0  0  0  0  0  0
   43.5988   16.8968    0.0052 O   0  0  0  0  0  0
   43.9988   17.7771    1.9465 O   0  5  0  0  0  0
   45.5902   15.3181    2.6602 C   0  0  0  0  0  0
   45.8688   16.2409    3.5998 O   0  0  0  0  0  0
   47.0824   16.9510    3.4017 C   0  0  0  0  0  0
   47.4837   17.6380    4.7060 C   0  0  0  0  0  0
   48.6158   18.1668    4.7464 O   0  0  0  0  0  0
   46.6558   17.6413    5.6483 O   0  5  0  0  0  0
   47.9990   13.2775    3.3754 H   0  0  0  0  0  0
   47.1988   14.2437    4.5442 H   0  0  0  0  0  0
   46.6368   12.5900    4.2660 H   0  0  0  0  0  0
   43.9582   11.5870    0.1698 H   0  0  0  0  0  0
   44.4126    9.3147   -0.6232 H   0  0  0  0  0  0
   46.4930    8.1637   -0.0243 H   0  0  0  0  0  0
   49.0340    9.6756    2.3190 H   0  0  0  0  0  0
   48.7161    7.7846    0.1585 H   0  0  0  0  0  0
   50.9414    8.2859    1.1716 H   0  0  0  0  0  0
   50.4277    7.5625    2.6760 H   0  0  0  0  0  0
   50.7253    6.1745   -0.0298 H   0  0  0  0  0  0
   51.6994    5.8984    1.3864 H   0  0  0  0  0  0
   50.2831    5.3567    4.3248 H   0  0  0  0  0  0
   48.7048    4.5736    4.2059 H   0  0  0  0  0  0
   51.9312    4.4856    5.8814 H   0  0  0  0  0  0
   52.5687    2.8188    7.6113 H   0  0  0  0  0  0
   51.2038    0.7714    7.9363 H   0  0  0  0  0  0
   49.1967    0.3742    6.5289 H   0  0  0  0  0  0
   48.5362    2.0385    4.8038 H   0  0  0  0  0  0
   48.0599    5.3660    0.2356 H   0  0  0  0  0  0
   47.7030    4.6058    1.7691 H   0  0  0  0  0  0
   48.1096    6.7415    2.9775 H   0  0  0  0  0  0
   46.8995    6.9561    1.7504 H   0  0  0  0  0  0
   47.7712   11.5932    2.2157 H   0  0  0  0  0  0
   46.9479   17.7026    2.6229 H   0  0  0  0  0  0
   47.8893   16.2870    3.0848 H   0  0  0  0  0  0
  1  2  1  0  0  0
  1 38  1  0  0  0
  1 39  1  0  0  0
  1 40  1  0  0  0
  2 32  1  0  0  0
  2  3  2  0  0  0
  3  4  1  0  0  0
  3 27  1  0  0  0
  4 26  1  0  0  0
  4  5  2  0  0  0
  5  6  1  0  0  0
  5 41  1  0  0  0
  6  7  2  0  0  0
  6 42  1  0  0  0
  7  8  1  0  0  0
  7 43  1  0  0  0
  8  9  1  0  0  0
  8 26  2  0  0  0
  9 10  1  0  0  0
  9 44  1  0  0  0
 10 25  1  0  0  0
 10 11  1  0  0  0
 10 45  1  0  0  0
 11 12  1  0  0  0
 11 46  1  0  0  0
 11 47  1  0  0  0
 12 13  1  0  0  0
 12 48  1  0  0  0
 12 49  1  0  0  0
 13 14  1  0  0  0
 13 24  1  0  0  0
 14 15  2  0  0  0
 14 16  2  0  0  0
 14 17  1  0  0  0
 17 18  1  0  0  0
 17 50  1  0  0  0
 17 51  1  0  0  0
 18 23  1  0  0  0
 18 19  2  0  0  0
 19 20  1  0  0  0
 19 52  1  0  0  0
 20 21  2  0  0  0
 20 53  1  0  0  0
 21 22  1  0  0  0
 21 54  1  0  0  0
 22 23  2  0  0  0
 22 55  1  0  0  0
 23 56  1  0  0  0
 24 25  1  0  0  0
 24 57  1  0  0  0
 24 58  1  0  0  0
 25 59  1  0  0  0
 25 60  1  0  0  0
 26 61  1  0  0  0
 27 28  1  0  0  0
 28 29  1  0  0  0
 28 32  2  0  0  0
 29 30  2  0  0  0
 29 31  1  0  0  0
 32 33  1  0  0  0
 33 34  1  0  0  0
 34 35  1  0  0  0
 34 62  1  0  0  0
 34 63  1  0  0  0
 35 36  2  0  0  0
 35 37  1  0  0  0
M  CHG  2  31  -1  37  -1
M  END
> <Tot Q>
-2

> <flags>
0

> <Source File Index>
1

> <i_f3d_flags>
0

> <subgroup collapsed>
0

> <Ionization Penalty>
0.0012

> <State Penalty>
0.0009

> <docking score>
-8.34395

> <glide emodel>
-141.827

> <glide gscore>
-8.34485

> <Source File>
glide-dock_SP_5_pv.maegz

> <Source Path>
C:\Users\yujie\Documents\Schrodinger\glide-dock_SP_5

> <entry id>
3930

> <job name>
glide-dock_SP_5

> <subgroup title>
glide-dock_SP_5_pv

> <subgroupid>
glide-dock_SP_5_pv

$$$$
