PTP1B_23468
                    3D
 Schrodinger Suite 2024-1.
 57 59  0  0  1  0            999 V2000
   48.7325    9.3535    1.8427 N   0  0  0  0  0  0
   47.4800    9.8399    1.4364 C   0  0  0  0  0  0
   46.5313    9.0591    0.7512 C   0  0  0  0  0  0
   45.3180    9.6167    0.3468 C   0  0  0  0  0  0
   45.0233   10.9490    0.6422 C   0  0  0  0  0  0
   45.9482   11.7516    1.3226 C   0  0  0  0  0  0
   45.6473   13.1850    1.6573 C   0  0  0  0  0  0
   44.6194   14.1199    0.5991 S   0  0  0  0  0  0
   44.7984   15.5630    1.5584 C   0  0  0  0  0  0
   44.1367   16.8096    1.1474 C   0  0  0  0  0  0
   44.1469   17.7768    1.9464 O   0  0  0  0  0  0
   43.5986   16.8551    0.0214 O   0  5  0  0  0  0
   45.5963   15.2979    2.6678 C   0  0  0  0  0  0
   45.8760   16.2163    3.6364 O   0  0  0  0  0  0
   47.0989   16.9175    3.4130 C   0  0  0  0  0  0
   47.5325   17.5401    4.7466 C   0  0  0  0  0  0
   46.7983   17.4003    5.7586 O   0  0  0  0  0  0
   48.6093   18.1767    4.7465 O   0  5  0  0  0  0
   46.0718   13.9766    2.7308 C   0  0  0  0  0  0
   47.1859   13.3789    4.1665 Br  0  0  0  0  0  0
   47.1710   11.1823    1.6995 C   0  0  0  0  0  0
   49.3520    9.9695    2.3498 H   0  0  0  0  0  0
   46.7128    8.0171    0.5375 H   0  0  0  0  0  0
   44.5962    9.0102   -0.1804 H   0  0  0  0  0  0
   44.0687   11.3514    0.3391 H   0  0  0  0  0  0
   47.8920   16.2629    3.0426 H   0  0  0  0  0  0
   46.9293   17.7176    2.6903 H   0  0  0  0  0  0
   47.9113   11.7879    2.1973 H   0  0  0  0  0  0
   51.0439    6.2737    1.9924 C   0  0  0  0  0  0
   50.4568    7.6683    2.3187 C   0  0  0  0  0  0
   49.2338    8.0378    1.4602 C   0  0  0  0  0  0
   49.6210    7.9935   -0.0330 C   0  0  0  0  0  0
   50.1378    6.6095   -0.4887 C   0  0  0  0  0  0
   51.2748    6.1326    0.4596 C   0  0  0  0  0  0
   50.1500    5.1501    2.5623 C   0  0  0  0  0  0
   52.4127    6.1437    2.6936 C   0  0  0  0  0  0
   51.2674    8.6157    1.9724 H   0  0  0  0  0  0
   50.4269    7.8308    3.3511 H   0  0  0  0  0  0
   48.4476    7.3234    1.9073 H   0  0  0  0  0  0
   48.3290    8.1616   -0.4470 H   0  0  0  0  0  0
   49.9965    8.8161   -0.3283 H   0  0  0  0  0  0
   48.9804    5.5911   -0.5903 C   0  0  0  0  0  0
   50.7242    6.7506   -1.9093 C   0  0  0  0  0  0
   51.9993    7.1215   -0.0720 H   0  0  0  0  0  0
   51.6353    5.3641   -0.0240 H   0  0  0  0  0  0
   50.4724    5.6387   -2.2356 H   0  0  0  0  0  0
   49.0957    6.7528   -2.4106 H   0  0  0  0  0  0
   50.7465    7.3970   -2.2463 H   0  0  0  0  0  0
   49.3123    4.5584   -0.3435 H   0  0  0  0  0  0
   48.7459    5.5202    1.0426 H   0  0  0  0  0  0
   47.9580    5.6954   -0.5435 H   0  0  0  0  0  0
   52.8944    5.2568    2.1491 H   0  0  0  0  0  0
   53.1789    7.0135    2.1571 H   0  0  0  0  0  0
   52.3866    6.2341    3.5471 H   0  0  0  0  0  0
   50.6020    4.3549    1.9914 H   0  0  0  0  0  0
   50.1287    5.3531    3.3867 H   0  0  0  0  0  0
   49.2029    5.4480    1.8698 H   0  0  0  0  0  0
  1  2  1  0  0  0
  1 22  1  0  0  0
  1 31  1  0  0  0
  2 21  1  0  0  0
  2  3  2  0  0  0
  3  4  1  0  0  0
  3 23  1  0  0  0
  4  5  2  0  0  0
  4 24  1  0  0  0
  5  6  1  0  0  0
  5 25  1  0  0  0
  6  7  1  0  0  0
  6 21  2  0  0  0
  7 19  2  0  0  0
  7  8  1  0  0  0
  8  9  1  0  0  0
  9 10  1  0  0  0
  9 13  2  0  0  0
 10 11  2  0  0  0
 10 12  1  0  0  0
 13 14  1  0  0  0
 13 19  1  0  0  0
 14 15  1  0  0  0
 15 16  1  0  0  0
 15 26  1  0  0  0
 15 27  1  0  0  0
 16 17  2  0  0  0
 16 18  1  0  0  0
 19 20  1  0  0  0
 21 28  1  0  0  0
 29 30  1  0  0  0
 29 34  1  0  0  0
 29 35  1  0  0  0
 29 36  1  0  0  0
 30 31  1  0  0  0
 30 37  1  0  0  0
 30 38  1  0  0  0
 31 32  1  0  0  0
 31 39  1  0  0  0
 32 33  1  0  0  0
 32 40  1  0  0  0
 32 41  1  0  0  0
 33 34  1  0  0  0
 33 42  1  0  0  0
 33 43  1  0  0  0
 34 44  1  0  0  0
 34 45  1  0  0  0
 35 55  1  0  0  0
 35 56  1  0  0  0
 35 57  1  0  0  0
 36 52  1  0  0  0
 36 53  1  0  0  0
 36 54  1  0  0  0
 42 49  1  0  0  0
 42 50  1  0  0  0
 42 51  1  0  0  0
 43 46  1  0  0  0
 43 47  1  0  0  0
 43 48  1  0  0  0
M  CHG  2  12  -1  18  -1
M  END
> <i_epik_Tot_Q>
-2

> <i_epik_Tot_abs_Q>
2

> <i_i_glide_confnum>
128

> <i_i_glide_lignum>
13

> <i_i_glide_posenum>
319

> <i_i_glide_rotatable_bonds>
8

> <i_lp_mmshare_version>
51139

> <i_m_Source_File_Index>
1

> <i_f3d_flags>
0

> <b_lp_Chiralities_Consistent>
1

> <r_epik_Charging_Adjusted_Penalty>
9.21585e-05

> <r_epik_Ionization_Penalty>
0.0001

> <r_epik_Ionization_Penalty_Charging>
0.0001

> <r_epik_Ionization_Penalty_Neutral>
0

> <r_epik_State_Penalty>
0

> <r_i_docking_score>
-8.30047

> <r_i_glide_ecoul>
-23.755

> <r_i_glide_eff_state_penalty>
0

> <r_i_glide_einternal>
8.95609

> <r_i_glide_emodel>
-115.686

> <r_i_glide_energy>
-60.0464

> <r_i_glide_erotb>
0.546133

> <r_i_glide_esite>
-0.0677084

> <r_i_glide_evdw>
-36.2914

> <r_i_glide_gscore>
-8.30047

> <r_i_glide_hbond>
-1.43889

> <r_i_glide_ligand_efficiency>
-0.332019

> <r_i_glide_ligand_efficiency_ln>
-1.96746

> <r_i_glide_ligand_efficiency_sa>
-0.970828

> <r_i_glide_lipo>
-1.37556

> <r_i_glide_metal>
0

> <r_i_glide_rewards>
-0.586627

> <r_lp_Energy>
36.9929

> <r_lp_tautomer_probability>
1

> <s_epik_cmdline>
J2VwaWtfcHl0aG9uJywgJy1waHQnLCAnMi4wJywgJy1waCcsICc3LjQnLCAnLXRuJywgJzgnLCAnLW1hJywgJzIwMCcsICctaW1hZScsICc8aW5maWxlLm1hZT4nLCAnLW9tYWUnLCAnPG91dGZpbGUubWFlPic=

> <s_epik_input>
W0NIM11bQ0gyXUMoPU8pW05IXWMxW2NIXVtjSF1bY0hdYyhbY0hdMSktYzJzYyhDKD1PKVtPSF0pYyhjMkJyKU9bQ0gyXUMoPU8pW09IXQ==

> <s_i_glide_gridfile>
PTP1B-001-gridgen

> <s_lp_Force_Field>
OPLS3e

> <s_lp_Variant>
PTP1B_23468-1

> <s_m_Source_File>
PTP1B_23468.sdf

> <s_m_Source_Path>
D:\project\FEP\PTP1B\pose_final

> <s_m_entry_id>
232

> <s_m_entry_name>
PTP1B_23468.1

$$$$
