PTP1B_23479
                    3D
 Schrodinger Suite 2020-3.
 49 51  0  0  1  0            999 V2000
   50.4009    5.3765    5.4666 C   0  0  0  0  0  0
   51.1470    6.1047    4.3463 C   0  0  0  0  0  0
   52.2640    6.5610    4.6060 O   0  0  0  0  0  0
   50.6236    6.0789    3.0928 N   0  0  0  0  0  0
   51.3411    6.6966    1.9644 C   0  0  0  0  0  0
   50.7749    8.1234    1.7882 C   0  0  0  0  0  0
   49.2388    8.1233    1.6063 C   0  0  0  0  0  0
   48.7982    9.5127    1.6603 N   0  0  0  0  0  0
   47.5116    9.9396    1.2944 C   0  0  0  0  0  0
   46.5641    9.1253    0.6623 C   0  0  0  0  0  0
   45.3031    9.6331    0.3464 C   0  0  0  0  0  0
   44.9786   10.9521    0.6676 C   0  0  0  0  0  0
   45.9188   11.7850    1.2861 C   0  0  0  0  0  0
   45.6025   13.2061    1.6363 C   0  0  0  0  0  0
   44.5682   14.1367    0.5861 S   0  0  0  0  0  0
   44.7591   15.5764    1.5483 C   0  0  0  0  0  0
   44.0999   16.8211    1.1375 C   0  0  0  0  0  0
   43.5986   16.8815   -0.0051 O   0  0  0  0  0  0
   44.0815   17.7770    1.9466 O   0  5  0  0  0  0
   45.5612   15.3127    2.6562 C   0  0  0  0  0  0
   45.8468   16.2287    3.6269 O   0  0  0  0  0  0
   47.0748   16.9242    3.4084 C   0  0  0  0  0  0
   47.5192   17.5330    4.7465 C   0  0  0  0  0  0
   46.7983   17.3777    5.7652 O   0  0  0  0  0  0
   48.5925   18.1766    4.7465 O   0  5  0  0  0  0
   46.0342   13.9915    2.7097 C   0  0  0  0  0  0
   47.1617   13.3788    4.1254 Br  0  0  0  0  0  0
   47.1835   11.2642    1.5785 C   0  0  0  0  0  0
   48.5488    7.2944    2.7196 C   0  0  0  0  0  0
   49.1794    5.8880    2.8525 C   0  0  0  0  0  0
   49.5059    5.9304    5.7480 H   0  0  0  0  0  0
   51.0348    5.2681    6.3463 H   0  0  0  0  0  0
   50.1074    4.3760    5.1475 H   0  0  0  0  0  0
   52.4255    6.6402    2.0746 H   0  0  0  0  0  0
   51.1271    6.0923    1.0816 H   0  0  0  0  0  0
   51.0717    8.7351    2.6432 H   0  0  0  0  0  0
   51.2441    8.5827    0.9185 H   0  0  0  0  0  0
   48.9960    7.7172    0.6224 H   0  0  0  0  0  0
   49.2859   10.1005    2.3284 H   0  0  0  0  0  0
   46.7900    8.1001    0.4115 H   0  0  0  0  0  0
   44.5745    9.0007   -0.1384 H   0  0  0  0  0  0
   43.9929   11.3253    0.4303 H   0  0  0  0  0  0
   47.8632   16.2694    3.0290 H   0  0  0  0  0  0
   46.9058   17.7313    2.6934 H   0  0  0  0  0  0
   47.9330   11.8969    2.0268 H   0  0  0  0  0  0
   47.4877    7.1769    2.4992 H   0  0  0  0  0  0
   48.5915    7.8133    3.6790 H   0  0  0  0  0  0
   49.0851    5.3468    1.9098 H   0  0  0  0  0  0
   48.6892    5.2301    3.5709 H   0  0  0  0  0  0
  1  2  1  0  0  0
  1 31  1  0  0  0
  1 32  1  0  0  0
  1 33  1  0  0  0
  2  3  2  0  0  0
  2  4  1  0  0  0
  4 30  1  0  0  0
  4  5  1  0  0  0
  5  6  1  0  0  0
  5 34  1  0  0  0
  5 35  1  0  0  0
  6  7  1  0  0  0
  6 36  1  0  0  0
  6 37  1  0  0  0
  7  8  1  0  0  0
  7 29  1  0  0  0
  7 38  1  0  0  0
  8  9  1  0  0  0
  8 39  1  0  0  0
  9 28  1  0  0  0
  9 10  2  0  0  0
 10 11  1  0  0  0
 10 40  1  0  0  0
 11 12  2  0  0  0
 11 41  1  0  0  0
 12 13  1  0  0  0
 12 42  1  0  0  0
 13 14  1  0  0  0
 13 28  2  0  0  0
 14 26  2  0  0  0
 14 15  1  0  0  0
 15 16  1  0  0  0
 16 17  1  0  0  0
 16 20  2  0  0  0
 17 18  2  0  0  0
 17 19  1  0  0  0
 20 21  1  0  0  0
 20 26  1  0  0  0
 21 22  1  0  0  0
 22 23  1  0  0  0
 22 43  1  0  0  0
 22 44  1  0  0  0
 23 24  2  0  0  0
 23 25  1  0  0  0
 26 27  1  0  0  0
 28 45  1  0  0  0
 29 30  1  0  0  0
 29 46  1  0  0  0
 29 47  1  0  0  0
 30 48  1  0  0  0
 30 49  1  0  0  0
M  CHG  2  19  -1  25  -1
M  END
> <s_m_source_file>
/home/user-home/yujie/0_PBCNetv2/data/FEP/PTP1B/inp_ligprep.csv

> <i_m_source_file_index>
5

> <i_lp_mmshare_version>
51139

> <i_f3d_flags>
0

> <s_epik_input>
W0NIM11DKD1PKU4xW0NIMl1bQ0gyXVtDSF0oW0NIMl1bQ0gyXTEpW05IXWMyW2NIXVtjSF1bY0hdYyhbY0hdMiktYzNzYyhDKD1PKVtPSF0pYyhjM0JyKU9bQ0gyXUMoPU8pW09IXQ==

> <s_epik_cmdline>
J2VwaWtfcHl0aG9uJywgJy1waHQnLCAnMi4wJywgJy1waCcsICc3LjQnLCAnLXRuJywgJzgnLCAnLW1hJywgJzIwMCcsICctaW1hZScsICc8aW5maWxlLm1hZT4nLCAnLW9tYWUnLCAnPG91dGZpbGUubWFlPic=

> <r_epik_Ionization_Penalty>
  0.0007

> <r_epik_Ionization_Penalty_Charging>
  0.0001

> <r_epik_Ionization_Penalty_Neutral>
  0.0006

> <r_epik_State_Penalty>
  0.0004

> <r_epik_Charging_Adjusted_Penalty>
0.000454863

> <i_epik_Tot_Q>
-2

> <i_epik_Tot_abs_Q>
2

> <s_lp_Force_Field>
OPLS3e

> <r_lp_Energy>
36.0231

> <b_lp_Chiralities_Consistent>
1

> <s_lp_Variant>
PTP1B_23479-1

> <s_i_glide_gridfile>
PTP1B-001-gridgen

> <i_i_glide_lignum>
6

> <i_i_glide_rotatable_bonds>
8

> <r_i_docking_score>
-8.30272669730368

> <r_i_glide_ligand_efficiency>
-0.27675755657679

> <r_i_glide_ligand_efficiency_sa>
-0.859950075088811

> <r_i_glide_ligand_efficiency_ln>
-1.88646997108048

> <r_i_glide_gscore>
-8.30308940230369

> <r_i_glide_lipo>
-1.34104643410093

> <r_i_glide_hbond>
-1.45241964381792

> <r_i_glide_metal>
-0

> <r_i_glide_rewards>
-0.0799015096001932

> <r_i_glide_evdw>
-41.6856689453125

> <r_i_glide_ecoul>
-24.6022911071777

> <r_i_glide_erotb>
0.415393924844045

> <r_i_glide_esite>
-0.0704886262864026

> <r_i_glide_emodel>
-123.367994559516

> <r_i_glide_energy>
-66.2879600524902

> <r_i_glide_einternal>
12.6800632476807

> <i_i_glide_confnum>
161

> <i_i_glide_posenum>
32

> <r_i_glide_eff_state_penalty>
0.000362705

$$$$
