lig3
                    3D
 Schrodinger Suite 2020-3.
 57 60  0  0  1  0            999 V2000
   38.0034   -8.8670   23.7753 N   0  3  0  0  0  0
   38.9462   -7.6587   23.6605 C   0  0  1  0  0  0
   38.6747   -6.9483   22.3110 C   0  0  0  0  0  0
   39.2841   -7.8654   20.8421 S   0  0  0  0  0  0
   40.4528   -6.7607   19.8850 C   0  0  0  0  0  0
   40.5698   -7.3310   18.4267 C   0  0  0  0  0  0
   40.4474   -8.7064   18.1555 C   0  0  0  0  0  0
   40.5302   -9.1945   16.8538 C   0  0  0  0  0  0
   40.7658   -8.3177   15.8009 C   0  0  0  0  0  0
   40.9128   -6.9572   16.0430 C   0  0  0  0  0  0
   40.8068   -6.4672   17.3419 C   0  0  0  0  0  0
   39.7774   -5.3540   19.8864 C   0  0  0  0  0  0
   40.2819   -4.2749   20.6333 C   0  0  0  0  0  0
   39.5980   -3.0645   20.6843 C   0  0  0  0  0  0
   38.4205   -2.9056   19.9606 C   0  0  0  0  0  0
   37.9382   -3.9334   19.1604 C   0  0  0  0  0  0
   38.6041   -5.1549   19.1381 C   0  0  0  0  0  0
   41.8667   -6.7827   20.5658 C   0  0  0  0  0  0
   41.9954   -6.6995   21.9582 C   0  0  0  0  0  0
   43.2335   -6.7671   22.5804 C   0  0  0  0  0  0
   44.4065   -6.9143   21.8445 C   0  0  0  0  0  0
   45.7276   -6.9974   22.5372 C   0  0  0  0  0  0
   45.9689   -6.2719   23.7162 C   0  0  0  0  0  0
   47.2020   -6.3440   24.3565 C   0  0  0  0  0  0
   48.2064   -7.1491   23.8267 C   0  0  0  0  0  0
   47.9861   -7.8796   22.6628 C   0  0  0  0  0  0
   46.7515   -7.8046   22.0245 C   0  0  0  0  0  0
   44.2998   -6.9811   20.4525 C   0  0  0  0  0  0
   43.0551   -6.9236   19.8254 C   0  0  0  0  0  0
   38.7275   -6.7388   24.8903 C   0  0  0  0  0  0
   37.7279   -6.8971   25.6315 O   0  0  0  0  0  0
   39.6037   -5.8672   25.0880 O   0  5  0  0  0  0
   39.9331   -8.1220   23.7024 H   0  0  0  0  0  0
   38.2111   -9.3973   24.6097 H   0  0  0  0  0  0
   37.0449   -8.5510   23.8114 H   0  0  0  0  0  0
   39.0994   -5.9474   22.3294 H   0  0  0  0  0  0
   37.6047   -6.7791   22.1794 H   0  0  0  0  0  0
   40.2910   -9.4230   18.9466 H   0  0  0  0  0  0
   40.4230  -10.2547   16.6669 H   0  0  0  0  0  0
   40.8349   -8.6976   14.7916 H   0  0  0  0  0  0
   41.1049   -6.2826   15.2214 H   0  0  0  0  0  0
   40.9312   -5.4070   17.5033 H   0  0  0  0  0  0
   41.1911   -4.3537   21.2092 H   0  0  0  0  0  0
   39.9797   -2.2526   21.2867 H   0  0  0  0  0  0
   37.8866   -1.9680   20.0081 H   0  0  0  0  0  0
   37.0385   -3.7984   18.5791 H   0  0  0  0  0  0
   38.1881   -5.9619   18.5504 H   0  0  0  0  0  0
   41.1482   -6.5562   22.5982 H   0  0  0  0  0  0
   43.2676   -6.6937   23.6574 H   0  0  0  0  0  0
   45.2082   -5.6280   24.1327 H   0  0  0  0  0  0
   47.3822   -5.7715   25.2546 H   0  0  0  0  0  0
   49.1664   -7.2008   24.3185 H   0  0  0  0  0  0
   48.7745   -8.4907   22.2475 H   0  0  0  0  0  0
   46.6014   -8.3761   21.1209 H   0  0  0  0  0  0
   45.1865   -7.0672   19.8409 H   0  0  0  0  0  0
   43.0482   -6.9816   18.7493 H   0  0  0  0  0  0
   38.1100   -9.4635   22.9667 H   0  0  0  0  0  0
  1  2  1  0  0  0
  1 34  1  0  0  0
  1 35  1  0  0  0
  1 57  1  0  0  0
  2 33  1  0  0  0
  2  3  1  0  0  0
  2 30  1  0  0  0
  3  4  1  0  0  0
  3 36  1  0  0  0
  3 37  1  0  0  0
  4  5  1  0  0  0
  5  6  1  0  0  0
  5 12  1  0  0  0
  5 18  1  0  0  0
  6 11  1  0  0  0
  6  7  2  0  0  0
  7  8  1  0  0  0
  7 38  1  0  0  0
  8  9  2  0  0  0
  8 39  1  0  0  0
  9 10  1  0  0  0
  9 40  1  0  0  0
 10 11  2  0  0  0
 10 41  1  0  0  0
 11 42  1  0  0  0
 12 17  1  0  0  0
 12 13  2  0  0  0
 13 14  1  0  0  0
 13 43  1  0  0  0
 14 15  2  0  0  0
 14 44  1  0  0  0
 15 16  1  0  0  0
 15 45  1  0  0  0
 16 17  2  0  0  0
 16 46  1  0  0  0
 17 47  1  0  0  0
 18 29  1  0  0  0
 18 19  2  0  0  0
 19 20  1  0  0  0
 19 48  1  0  0  0
 20 21  2  0  0  0
 20 49  1  0  0  0
 21 22  1  0  0  0
 21 28  1  0  0  0
 22 27  1  0  0  0
 22 23  2  0  0  0
 23 24  1  0  0  0
 23 50  1  0  0  0
 24 25  2  0  0  0
 24 51  1  0  0  0
 25 26  1  0  0  0
 25 52  1  0  0  0
 26 27  2  0  0  0
 26 53  1  0  0  0
 27 54  1  0  0  0
 28 29  2  0  0  0
 28 55  1  0  0  0
 29 56  1  0  0  0
 30 31  2  0  0  0
 30 32  1  0  0  0
M  CHG  2   1   1  32  -1
M  END
> <s_m_source_file>
/home/user-home/yujie/0_PBCNetv2/data/0_0_high_sim/0_noncov/Sries24757/ligprep_input.csv

> <i_m_source_file_index>
4

> <i_lp_mmshare_version>
51139

> <i_f3d_flags>
0

> <s_epik_input>
W2NIXTFbY0hdW2NIXVtjSF1bY0hdYzFDKFNbQ0gyXVtDQEhdKFtOSDJdKUMoPU8pW09IXSkoYzJbY0hdW2NIXVtjSF1bY0hdW2NIXTIpYzNbY0hdW2NIXWMoW2NIXVtjSF0zKS1jNFtjSF1bY0hdW2NIXVtjSF1bY0hdNA==

> <s_epik_cmdline>
J2VwaWtfcHl0aG9uJywgJy1waHQnLCAnMi4wJywgJy1waCcsICc3LjQnLCAnLXRuJywgJzgnLCAnLW1hJywgJzIwMCcsICctaW1hZScsICc8aW5maWxlLm1hZT4nLCAnLW9tYWUnLCAnPG91dGZpbGUubWFlPic=

> <r_epik_Ionization_Penalty>
  0.0137

> <r_epik_Ionization_Penalty_Charging>
  0.0137

> <r_epik_Ionization_Penalty_Neutral>
  0.0000

> <r_epik_State_Penalty>
  0.0106

> <r_epik_Charging_Adjusted_Penalty>
0.0243095

> <i_epik_Tot_Q>
0

> <i_epik_Tot_abs_Q>
2

> <s_lp_Force_Field>
OPLS3e

> <r_lp_Energy>
50.9476

> <b_lp_Chiralities_Consistent>
1

> <s_lp_Variant>
lig3-1

> <s_i_glide_gridfile>
Sries16467-001-gridgen

> <i_i_glide_lignum>
7

> <i_i_glide_rotatable_bonds>
8

> <r_i_docking_score>
-7.65171876137615

> <r_i_glide_ligand_efficiency>
-0.239116211293005

> <r_i_glide_ligand_efficiency_sa>
-0.759146649821331

> <r_i_glide_ligand_efficiency_ln>
-1.71342840864795

> <r_i_glide_gscore>
-7.66236346137615

> <r_i_glide_lipo>
-4.87184351811203

> <r_i_glide_hbond>
-0.0167758052022866

> <r_i_glide_metal>
-0

> <r_i_glide_rewards>
-0.512025454545454

> <r_i_glide_evdw>
-47.781551361084

> <r_i_glide_ecoul>
-3.41355514526367

> <r_i_glide_erotb>
0.723084416140098

> <r_i_glide_esite>
-0.0836922598127295

> <r_i_glide_emodel>
-73.5640374280388

> <r_i_glide_energy>
-51.1951065063477

> <r_i_glide_einternal>
10.2567701339722

> <i_i_glide_confnum>
50

> <i_i_glide_posenum>
248

> <r_i_glide_eff_state_penalty>
0.0106447

$$$$
