lig13
                    3D
 Schrodinger Suite 2020-3.
 47 49  0  0  1  0            999 V2000
   37.2037   -7.4666   23.5069 N   0  3  0  0  0  0
   38.7021   -7.3918   23.8247 C   0  0  1  0  0  0
   39.4091   -6.6965   22.6398 C   0  0  0  0  0  0
   39.2037   -7.5372   21.0284 S   0  0  0  0  0  0
   40.3705   -6.6548   19.8870 C   0  0  0  0  0  0
   40.3564   -7.2832   18.4603 C   0  0  0  0  0  0
   39.9965   -8.6235   18.2416 C   0  0  0  0  0  0
   40.0312   -9.1764   16.9658 C   0  0  0  0  0  0
   40.4402   -8.3973   15.8874 C   0  0  0  0  0  0
   40.8033   -7.0669   16.0775 C   0  0  0  0  0  0
   40.7454   -6.5117   17.3522 C   0  0  0  0  0  0
   39.7875   -5.2115   19.9118 C   0  0  0  0  0  0
   40.3036   -4.2244   20.7655 C   0  0  0  0  0  0
   39.6547   -3.0002   20.9078 C   0  0  0  0  0  0
   38.5019   -2.7386   20.1752 C   0  0  0  0  0  0
   38.0040   -3.6809   19.2817 C   0  0  0  0  0  0
   38.6449   -4.9093   19.1499 C   0  0  0  0  0  0
   41.8509   -6.8010   20.3526 C   0  0  0  0  0  0
   42.8371   -5.9206   19.8751 C   0  0  0  0  0  0
   44.1803   -6.1178   20.1876 C   0  0  0  0  0  0
   44.5509   -7.1799   21.0086 C   0  0  0  0  0  0
   46.2105   -7.4666   21.3761 Cl  0  0  0  0  0  0
   43.5896   -8.0371   21.5255 C   0  0  0  0  0  0
   42.2533   -7.8540   21.1928 C   0  0  0  0  0  0
   38.8589   -6.6665   25.1903 C   0  0  0  0  0  0
   39.9608   -6.1306   25.4404 O   0  0  0  0  0  0
   37.9041   -6.6673   26.0049 O   0  5  0  0  0  0
   38.9992   -8.4371   23.9185 H   0  0  0  0  0  0
   36.7129   -7.9108   24.2685 H   0  0  0  0  0  0
   36.8380   -6.5296   23.3746 H   0  0  0  0  0  0
   40.4748   -6.6066   22.8474 H   0  0  0  0  0  0
   39.0280   -5.6779   22.5503 H   0  0  0  0  0  0
   39.7035   -9.2648   19.0568 H   0  0  0  0  0  0
   39.7533  -10.2113   16.8163 H   0  0  0  0  0  0
   40.4776   -8.8293   14.8969 H   0  0  0  0  0  0
   41.1228   -6.4665   15.2385 H   0  0  0  0  0  0
   41.0299   -5.4778   17.4792 H   0  0  0  0  0  0
   41.1744   -4.4146   21.3750 H   0  0  0  0  0  0
   40.0422   -2.2628   21.5949 H   0  0  0  0  0  0
   37.9923   -1.7947   20.3007 H   0  0  0  0  0  0
   37.1087   -3.4702   18.7165 H   0  0  0  0  0  0
   38.2105   -5.6531   18.4968 H   0  0  0  0  0  0
   42.5724   -5.1025   19.2220 H   0  0  0  0  0  0
   44.9351   -5.4591   19.7821 H   0  0  0  0  0  0
   43.8820   -8.8618   22.1585 H   0  0  0  0  0  0
   41.5493   -8.5746   21.5757 H   0  0  0  0  0  0
   37.0502   -8.0013   22.6617 H   0  0  0  0  0  0
  1  2  1  0  0  0
  1 29  1  0  0  0
  1 30  1  0  0  0
  1 47  1  0  0  0
  2 28  1  0  0  0
  2  3  1  0  0  0
  2 25  1  0  0  0
  3  4  1  0  0  0
  3 31  1  0  0  0
  3 32  1  0  0  0
  4  5  1  0  0  0
  5  6  1  0  0  0
  5 12  1  0  0  0
  5 18  1  0  0  0
  6 11  1  0  0  0
  6  7  2  0  0  0
  7  8  1  0  0  0
  7 33  1  0  0  0
  8  9  2  0  0  0
  8 34  1  0  0  0
  9 10  1  0  0  0
  9 35  1  0  0  0
 10 11  2  0  0  0
 10 36  1  0  0  0
 11 37  1  0  0  0
 12 17  1  0  0  0
 12 13  2  0  0  0
 13 14  1  0  0  0
 13 38  1  0  0  0
 14 15  2  0  0  0
 14 39  1  0  0  0
 15 16  1  0  0  0
 15 40  1  0  0  0
 16 17  2  0  0  0
 16 41  1  0  0  0
 17 42  1  0  0  0
 18 24  1  0  0  0
 18 19  2  0  0  0
 19 20  1  0  0  0
 19 43  1  0  0  0
 20 21  2  0  0  0
 20 44  1  0  0  0
 21 22  1  0  0  0
 21 23  1  0  0  0
 23 24  2  0  0  0
 23 45  1  0  0  0
 24 46  1  0  0  0
 25 26  2  0  0  0
 25 27  1  0  0  0
M  CHG  2   1   1  27  -1
M  END
> <s_m_source_file>
/home/user-home/yujie/0_PBCNetv2/data/0_0_high_sim/0_noncov/Sries24757/ligprep_input.csv

> <i_m_source_file_index>
14

> <i_lp_mmshare_version>
51139

> <i_f3d_flags>
0

> <s_epik_input>
W2NIXTFbY0hdW2NIXVtjSF1bY0hdYzFDKFNbQ0gyXVtDQEhdKFtOSDJdKUMoPU8pW09IXSkoYzJbY0hdW2NIXVtjSF1bY0hdW2NIXTIpYzNbY0hdW2NIXWMoQ2wpW2NIXVtjSF0z

> <s_epik_cmdline>
J2VwaWtfcHl0aG9uJywgJy1waHQnLCAnMi4wJywgJy1waCcsICc3LjQnLCAnLXRuJywgJzgnLCAnLW1hJywgJzIwMCcsICctaW1hZScsICc8aW5maWxlLm1hZT4nLCAnLW9tYWUnLCAnPG91dGZpbGUubWFlPic=

> <r_epik_Ionization_Penalty>
  0.0140

> <r_epik_Ionization_Penalty_Charging>
  0.0140

> <r_epik_Ionization_Penalty_Neutral>
  0.0000

> <r_epik_State_Penalty>
  0.0109

> <r_epik_Charging_Adjusted_Penalty>
0.0248384

> <i_epik_Tot_Q>
0

> <i_epik_Tot_abs_Q>
2

> <s_lp_Force_Field>
OPLS3e

> <r_lp_Energy>
37.3526

> <b_lp_Chiralities_Consistent>
1

> <s_lp_Variant>
lig13-1

> <s_i_glide_gridfile>
Sries16467-001-gridgen

> <i_i_glide_lignum>
27

> <i_i_glide_rotatable_bonds>
7

> <r_i_docking_score>
-8.114020729704

> <r_i_glide_ligand_efficiency>
-0.300519286285333

> <r_i_glide_ligand_efficiency_sa>
-0.901557857865537

> <r_i_glide_ligand_efficiency_ln>
-1.88881025578866

> <r_i_glide_gscore>
-8.124906029704

> <r_i_glide_lipo>
-4.84987192169346

> <r_i_glide_hbond>
-0.2

> <r_i_glide_metal>
-0

> <r_i_glide_rewards>
-0.762677575757574

> <r_i_glide_evdw>
-46.4753494262695

> <r_i_glide_ecoul>
-3.98185610771179

> <r_i_glide_erotb>
0.741933767777205

> <r_i_glide_esite>
-0.133244412559917

> <r_i_glide_emodel>
-78.0683397649517

> <r_i_glide_energy>
-50.4572055339813

> <r_i_glide_einternal>
3.62941646575928

> <i_i_glide_confnum>
64

> <i_i_glide_posenum>
235

> <r_i_glide_eff_state_penalty>
0.0108853

$$$$
