lig14
                    3D
 Schrodinger Suite 2023-4.
 49 51  0  0  1  0            999 V2000
   40.5970   -9.1466   14.9759 C   0  0  0  0  0  0
   40.4727   -8.4699   16.3159 C   0  0  0  0  0  0
   40.7806   -7.1193   16.4434 C   0  0  0  0  0  0
   40.6809   -6.5096   17.6884 C   0  0  0  0  0  0
   40.3026   -7.2439   18.8270 C   0  0  0  0  0  0
   40.3046   -6.5634   20.2287 C   0  0  0  0  0  0
   39.2078   -7.4677   21.4192 S   0  0  0  0  0  0
   39.4037   -6.6141   23.0330 C   0  0  0  0  0  0
   38.6181   -7.3238   24.1658 C   0  0  2  0  0  0
   37.2035   -7.4667   23.7753 N   0  0  0  0  0  0
   38.7816   -6.6665   25.5892 C   0  0  0  0  0  0
   38.0732   -7.1592   26.4993 O   0  0  0  0  0  0
   39.6111   -5.7309   25.6756 O   0  5  0  0  0  0
   41.8051   -6.6230   20.6442 C   0  0  0  0  0  0
   42.3044   -7.6250   21.4949 C   0  0  0  0  0  0
   43.6697   -7.7376   21.7426 C   0  0  0  0  0  0
   44.5575   -6.8642   21.1237 C   0  0  0  0  0  0
   44.0857   -5.8666   20.2788 C   0  0  0  0  0  0
   42.7189   -5.7248   20.0700 C   0  0  0  0  0  0
   39.6764   -5.1409   20.1909 C   0  0  0  0  0  0
   38.6062   -4.8632   19.3235 C   0  0  0  0  0  0
   38.0034   -3.6110   19.3118 C   0  0  0  0  0  0
   38.4572   -2.6228   20.1761 C   0  0  0  0  0  0
   39.5213   -2.8693   21.0380 C   0  0  0  0  0  0
   40.1261   -4.1223   21.0433 C   0  0  0  0  0  0
   39.9794   -8.5989   18.6658 C   0  0  0  0  0  0
   40.0586   -9.2061   17.4198 C   0  0  0  0  0  0
   39.0328   -8.3255   24.2855 H   0  0  0  0  0  0
   40.4036  -10.2152   15.0455 H   0  0  0  0  0  0
   39.9354   -8.6729   14.2498 H   0  0  0  0  0  0
   41.6037   -9.0612   14.5987 H   0  0  0  0  0  0
   41.0965   -6.5452   15.5849 H   0  0  0  0  0  0
   40.9304   -5.4622   17.7675 H   0  0  0  0  0  0
   40.4619   -6.5496   23.2856 H   0  0  0  0  0  0
   39.0364   -5.5927   22.9395 H   0  0  0  0  0  0
   36.8297   -6.5329   23.5928 H   0  0  0  0  0  0
   37.1467   -7.9624   22.8903 H   0  0  0  0  0  0
   41.6520   -8.3563   21.9469 H   0  0  0  0  0  0
   44.0414   -8.5179   22.3900 H   0  0  0  0  0  0
   45.6200   -6.9657   21.2916 H   0  0  0  0  0  0
   44.7778   -5.2002   19.7830 H   0  0  0  0  0  0
   42.3797   -4.9416   19.4100 H   0  0  0  0  0  0
   38.2094   -5.6313   18.6749 H   0  0  0  0  0  0
   37.1728   -3.4152   18.6512 H   0  0  0  0  0  0
   37.9758   -1.6557   20.1834 H   0  0  0  0  0  0
   39.8629   -2.1014   21.7163 H   0  0  0  0  0  0
   40.9087   -4.3148   21.7615 H   0  0  0  0  0  0
   39.6925   -9.2098   19.5059 H   0  0  0  0  0  0
   39.8201  -10.2567   17.3247 H   0  0  0  0  0  0
  1  2  1  0  0  0
  1 29  1  0  0  0
  1 30  1  0  0  0
  1 31  1  0  0  0
  2 27  1  0  0  0
  2  3  2  0  0  0
  3  4  1  0  0  0
  3 32  1  0  0  0
  4  5  2  0  0  0
  4 33  1  0  0  0
  5  6  1  0  0  0
  5 26  1  0  0  0
  6  7  1  0  0  0
  6 14  1  0  0  0
  6 20  1  0  0  0
  7  8  1  0  0  0
  8  9  1  0  0  0
  8 34  1  0  0  0
  8 35  1  0  0  0
  9 28  1  0  0  0
  9 10  1  0  0  0
  9 11  1  0  0  0
 10 36  1  0  0  0
 10 37  1  0  0  0
 11 12  2  0  0  0
 11 13  1  0  0  0
 14 19  1  0  0  0
 14 15  2  0  0  0
 15 16  1  0  0  0
 15 38  1  0  0  0
 16 17  2  0  0  0
 16 39  1  0  0  0
 17 18  1  0  0  0
 17 40  1  0  0  0
 18 19  2  0  0  0
 18 41  1  0  0  0
 19 42  1  0  0  0
 20 25  1  0  0  0
 20 21  2  0  0  0
 21 22  1  0  0  0
 21 43  1  0  0  0
 22 23  2  0  0  0
 22 44  1  0  0  0
 23 24  1  0  0  0
 23 45  1  0  0  0
 24 25  2  0  0  0
 24 46  1  0  0  0
 25 47  1  0  0  0
 26 27  2  0  0  0
 26 48  1  0  0  0
 27 49  1  0  0  0
M  CHG  1  13  -1
M  END
> <i_epik_Tot_Q>
-1

> <i_epik_Tot_abs_Q>
1

> <i_i_glide_confnum>
12

> <i_i_glide_lignum>
30

> <i_i_glide_posenum>
209

> <i_i_glide_rotatable_bonds>
7

> <i_lp_mmshare_version>
51139

> <i_m_source_file_index>
15

> <i_f3d_flags>
0

> <b_lp_Chiralities_Consistent>
1

> <r_epik_Charging_Adjusted_Penalty>
2.38687

> <r_epik_Ionization_Penalty>
2.2405

> <r_epik_Ionization_Penalty_Charging>
0.0002

> <r_epik_Ionization_Penalty_Neutral>
2.2403

> <r_epik_State_Penalty>
2.3867

> <r_i_docking_score>
-6.20131

> <r_i_glide_ecoul>
-4.886

> <r_i_glide_eff_state_penalty>
2.38667

> <r_i_glide_einternal>
7.06557

> <r_i_glide_emodel>
-72.7023

> <r_i_glide_energy>
-48.6307

> <r_i_glide_erotb>
0.819418

> <r_i_glide_esite>
-0.0357002

> <r_i_glide_evdw>
-43.7447

> <r_i_glide_gscore>
-8.58798

> <r_i_glide_hbond>
-0.570285

> <r_i_glide_ligand_efficiency>
-0.229678

> <r_i_glide_ligand_efficiency_ln>
-1.44356

> <r_i_glide_ligand_efficiency_sa>
-0.689034

> <r_i_glide_lipo>
-4.93427

> <r_i_glide_metal>
-0

> <r_i_glide_rewards>
-0.947005

> <r_lp_Energy>
54.8057

> <s_epik_cmdline>
J2VwaWtfcHl0aG9uJywgJy1waHQnLCAnMi4wJywgJy1waCcsICc3LjQnLCAnLXRuJywgJzgnLCAnLW1hJywgJzIwMCcsICctaW1hZScsICc8aW5maWxlLm1hZT4nLCAnLW9tYWUnLCAnPG91dGZpbGUubWFlPic=

> <s_epik_input>
W2NIXTFbY0hdW2NIXVtjSF1bY0hdYzFDKGMoW2NIXVtjSF0yKVtjSF1bY0hdYzJbQ0gzXSkoU1tDSDJdW0NASF0oW05IMl0pQyg9TylbT0hdKWMzW2NIXVtjSF1bY0hdW2NIXVtjSF0z

> <s_i_glide_gridfile>
Sries16467-001-gridgen

> <s_lp_Force_Field>
OPLS3e

> <s_lp_Variant>
lig14-2

> <s_m_source_file>
/home/user-home/yujie/0_PBCNetv2/data/0_0_high_sim/0_noncov/Sries24757/ligprep_input.csv

$$$$
