lig7
                    3D
 Schrodinger Suite 2020-3.
 56 58  0  0  1  0            999 V2000
   45.5339   -7.1077   24.2854 C   0  0  0  0  0  0
   46.2680   -6.5179   23.0713 C   0  0  0  0  0  0
   46.0038   -7.2523   21.7378 C   0  0  0  0  0  0
   44.5729   -7.1202   21.2375 C   0  0  0  0  0  0
   44.2300   -6.1298   20.3183 C   0  0  0  0  0  0
   42.9089   -5.9880   19.9002 C   0  0  0  0  0  0
   41.9081   -6.8505   20.3745 C   0  0  0  0  0  0
   40.4415   -6.6958   19.8723 C   0  0  0  0  0  0
   39.2405   -7.5809   20.9784 S   0  0  0  0  0  0
   39.4158   -6.7223   22.5867 C   0  0  0  0  0  0
   38.6971   -7.4051   23.7677 C   0  0  2  0  0  0
   37.2035   -7.4666   23.4284 N   0  3  0  0  0  0
   38.8397   -6.6667   25.1274 C   0  0  0  0  0  0
   39.9394   -6.1296   25.3864 O   0  0  0  0  0  0
   37.8794   -6.6671   25.9351 O   0  5  0  0  0  0
   39.8726   -5.2465   19.9080 C   0  0  0  0  0  0
   38.7273   -4.9290   19.1562 C   0  0  0  0  0  0
   38.1042   -3.6912   19.2889 C   0  0  0  0  0  0
   38.6206   -2.7544   20.1765 C   0  0  0  0  0  0
   39.7690   -3.0341   20.9094 C   0  0  0  0  0  0
   40.4007   -4.2663   20.7636 C   0  0  0  0  0  0
   40.4476   -7.3119   18.4418 C   0  0  0  0  0  0
   40.7580   -6.5178   17.3257 C   0  0  0  0  0  0
   40.8035   -7.0676   16.0473 C   0  0  0  0  0  0
   40.5240   -8.4182   15.8651 C   0  0  0  0  0  0
   40.2090   -9.2237   16.9541 C   0  0  0  0  0  0
   40.1723   -8.6726   18.2313 C   0  0  0  0  0  0
   42.2835   -7.8663   21.2706 C   0  0  0  0  0  0
   43.5974   -7.9965   21.7017 C   0  0  0  0  0  0
   38.9900   -8.4499   23.8745 H   0  0  0  0  0  0
   45.8391   -6.6092   25.2043 H   0  0  0  0  0  0
   44.4528   -6.9869   24.1977 H   0  0  0  0  0  0
   45.7444   -8.1726   24.3995 H   0  0  0  0  0  0
   47.3403   -6.5390   23.2723 H   0  0  0  0  0  0
   46.0035   -5.4625   22.9747 H   0  0  0  0  0  0
   46.2550   -8.3105   21.8374 H   0  0  0  0  0  0
   46.6841   -6.8796   20.9693 H   0  0  0  0  0  0
   44.9889   -5.4656   19.9321 H   0  0  0  0  0  0
   42.6702   -5.2079   19.1924 H   0  0  0  0  0  0
   40.4759   -6.6178   22.8134 H   0  0  0  0  0  0
   39.0262   -5.7079   22.4823 H   0  0  0  0  0  0
   36.7014   -7.9053   24.1865 H   0  0  0  0  0  0
   36.8479   -6.5268   23.2915 H   0  0  0  0  0  0
   38.2800   -5.6682   18.5064 H   0  0  0  0  0  0
   37.2068   -3.4707   18.7302 H   0  0  0  0  0  0
   38.1231   -1.8053   20.3025 H   0  0  0  0  0  0
   40.1679   -2.3030   21.5960 H   0  0  0  0  0  0
   41.2678   -4.4682   21.3745 H   0  0  0  0  0  0
   40.9828   -5.4678   17.4458 H   0  0  0  0  0  0
   41.0539   -6.4473   15.1979 H   0  0  0  0  0  0
   40.5572   -8.8455   14.8736 H   0  0  0  0  0  0
   39.9988  -10.2763   16.8128 H   0  0  0  0  0  0
   39.9417   -9.3289   19.0557 H   0  0  0  0  0  0
   41.5712   -8.5852   21.6434 H   0  0  0  0  0  0
   43.8541   -8.7784   22.4006 H   0  0  0  0  0  0
   37.0565   -8.0054   22.5844 H   0  0  0  0  0  0
  1  2  1  0  0  0
  1 31  1  0  0  0
  1 32  1  0  0  0
  1 33  1  0  0  0
  2  3  1  0  0  0
  2 34  1  0  0  0
  2 35  1  0  0  0
  3  4  1  0  0  0
  3 36  1  0  0  0
  3 37  1  0  0  0
  4 29  1  0  0  0
  4  5  2  0  0  0
  5  6  1  0  0  0
  5 38  1  0  0  0
  6  7  2  0  0  0
  6 39  1  0  0  0
  7  8  1  0  0  0
  7 28  1  0  0  0
  8  9  1  0  0  0
  8 16  1  0  0  0
  8 22  1  0  0  0
  9 10  1  0  0  0
 10 11  1  0  0  0
 10 40  1  0  0  0
 10 41  1  0  0  0
 11 30  1  0  0  0
 11 12  1  0  0  0
 11 13  1  0  0  0
 12 42  1  0  0  0
 12 43  1  0  0  0
 12 56  1  0  0  0
 13 14  2  0  0  0
 13 15  1  0  0  0
 16 21  1  0  0  0
 16 17  2  0  0  0
 17 18  1  0  0  0
 17 44  1  0  0  0
 18 19  2  0  0  0
 18 45  1  0  0  0
 19 20  1  0  0  0
 19 46  1  0  0  0
 20 21  2  0  0  0
 20 47  1  0  0  0
 21 48  1  0  0  0
 22 27  1  0  0  0
 22 23  2  0  0  0
 23 24  1  0  0  0
 23 49  1  0  0  0
 24 25  2  0  0  0
 24 50  1  0  0  0
 25 26  1  0  0  0
 25 51  1  0  0  0
 26 27  2  0  0  0
 26 52  1  0  0  0
 27 53  1  0  0  0
 28 29  2  0  0  0
 28 54  1  0  0  0
 29 55  1  0  0  0
M  CHG  2  12   1  15  -1
M  END
> <s_m_source_file>
/home/user-home/yujie/0_PBCNetv2/data/0_0_high_sim/0_noncov/Sries24757/ligprep_input.csv

> <i_m_source_file_index>
8

> <i_lp_mmshare_version>
51139

> <i_f3d_flags>
0

> <s_epik_input>
W0NIM11bQ0gyXVtDSDJdYzFbY0hdW2NIXWMoW2NIXVtjSF0xKUMoU1tDSDJdW0NASF0oW05IMl0pQyg9TylbT0hdKShjMltjSF1bY0hdW2NIXVtjSF1bY0hdMiljM1tjSF1bY0hdW2NIXVtjSF1bY0hdMw==

> <s_epik_cmdline>
J2VwaWtfcHl0aG9uJywgJy1waHQnLCAnMi4wJywgJy1waCcsICc3LjQnLCAnLXRuJywgJzgnLCAnLW1hJywgJzIwMCcsICctaW1hZScsICc8aW5maWxlLm1hZT4nLCAnLW9tYWUnLCAnPG91dGZpbGUubWFlPic=

> <r_epik_Ionization_Penalty>
  0.0137

> <r_epik_Ionization_Penalty_Charging>
  0.0137

> <r_epik_Ionization_Penalty_Neutral>
  0.0000

> <r_epik_State_Penalty>
  0.0106

> <r_epik_Charging_Adjusted_Penalty>
0.0243095

> <i_epik_Tot_Q>
0

> <i_epik_Tot_abs_Q>
2

> <s_lp_Force_Field>
OPLS3e

> <r_lp_Energy>
38.5464

> <b_lp_Chiralities_Consistent>
1

> <s_lp_Variant>
lig7-1

> <s_i_glide_gridfile>
Sries16467-001-gridgen

> <i_i_glide_lignum>
15

> <i_i_glide_rotatable_bonds>
9

> <r_i_docking_score>
-8.1132886721493

> <r_i_glide_ligand_efficiency>
-0.2797685749017

> <r_i_glide_ligand_efficiency_sa>
-0.859537699003872

> <r_i_glide_ligand_efficiency_ln>
-1.85773737067279

> <r_i_glide_gscore>
-8.1239333721493

> <r_i_glide_lipo>
-4.88646993242866

> <r_i_glide_hbond>
-0.2

> <r_i_glide_metal>
-0

> <r_i_glide_rewards>
-0.710620893939393

> <r_i_glide_evdw>
-46.5663948059082

> <r_i_glide_ecoul>
-4.65409660339355

> <r_i_glide_erotb>
0.836467517661181

> <r_i_glide_esite>
-0.136875832637982

> <r_i_glide_emodel>
-80.2783822378562

> <r_i_glide_energy>
-51.2204914093018

> <r_i_glide_einternal>
2.76091480255127

> <i_i_glide_confnum>
4

> <i_i_glide_posenum>
200

> <r_i_glide_eff_state_penalty>
0.0106447

$$$$
