lig_syk_CHEMBL3265033
                    3D
 Schrodinger Suite 2020-3.
 54 59  0  0  1  0            999 V2000
   -7.0836   -1.9477   13.7726 O   0  0  0  0  0  0
   -6.7523   -3.3205   14.1663 S   0  0  0  0  0  0
   -7.8191   -4.3239   14.1913 O   0  0  0  0  0  0
   -5.9062   -3.2815   15.8416 C   0  0  0  0  0  0
   -4.3864   -3.5131   15.7360 C   0  0  0  0  0  0
   -3.7134   -2.7219   14.6879 N   0  0  0  0  0  0
   -2.3904   -2.3168   14.8528 C   0  0  0  0  0  0
   -1.9068   -1.1994   14.1621 C   0  0  0  0  0  0
   -0.5713   -0.8172   14.2686 C   0  0  0  0  0  0
    0.3076   -1.5562   15.0680 C   0  0  0  0  0  0
    1.6644   -1.2485   15.2442 N   0  0  0  0  0  0
    2.5673   -0.3500   14.6526 C   0  0  0  0  0  0
    2.1710    0.4744   13.6435 N   0  0  0  0  0  0
    3.0427    1.3719   13.1073 C   0  0  0  0  0  0
    2.5136    2.3052   12.0688 C   0  0  0  0  0  0
    3.3360    2.7094   11.0060 C   0  0  0  0  0  0
    2.9021    3.5991   10.0236 C   0  0  0  0  0  0
    1.5996    4.1037   10.1132 C   0  0  0  0  0  0
    0.7899    5.0081    9.3652 C   0  0  0  0  0  0
   -0.3987    5.1382    9.8925 N   0  0  0  0  0  0
   -0.4259    4.3540   10.9854 N   0  0  0  0  0  0
    0.7685    3.6907   11.1794 C   0  0  0  0  0  0
    1.2008    2.7964   12.1620 C   0  0  0  0  0  0
    4.3603    1.4551   13.5534 C   0  0  0  0  0  0
    4.7501    0.6340   14.5725 N   0  0  0  0  0  0
    5.9299    0.5303   15.2526 C   0  0  0  0  0  0
    5.7039   -0.4312   16.2283 C   0  0  0  0  0  0
    4.5022   -0.9673   16.1758 N   0  0  0  0  0  0
    3.8821   -0.3022   15.1606 C   0  0  0  0  0  0
   -0.1689   -2.6675   15.7600 C   0  0  0  0  0  0
   -1.4997   -3.0508   15.6479 C   0  0  0  0  0  0
   -4.1143   -3.0424   13.3029 C   0  0  0  0  0  0
   -5.3498   -3.9348   13.1004 C   0  0  0  0  0  0
   -1.2547    4.3113   11.5592 H   0  0  0  0  0  0
   -6.1231   -2.3138   16.2928 H   0  0  0  0  0  0
   -6.3907   -4.0078   16.4926 H   0  0  0  0  0  0
   -4.1516   -4.5729   15.6281 H   0  0  0  0  0  0
   -3.9732   -3.2259   16.7055 H   0  0  0  0  0  0
   -2.5657   -0.6201   13.5336 H   0  0  0  0  0  0
   -0.2472    0.0553   13.7259 H   0  0  0  0  0  0
    2.1041   -1.8147   15.9579 H   0  0  0  0  0  0
    4.3401    2.3178   10.9328 H   0  0  0  0  0  0
    3.5556    3.8938    9.2148 H   0  0  0  0  0  0
    1.0640    5.5545    8.4760 H   0  0  0  0  0  0
    0.5546    2.5071   12.9785 H   0  0  0  0  0  0
    5.0851    2.1678   13.1907 H   0  0  0  0  0  0
    6.7936    1.1378   15.0228 H   0  0  0  0  0  0
    6.4192   -0.7429   16.9737 H   0  0  0  0  0  0
    0.4933   -3.2512   16.3859 H   0  0  0  0  0  0
   -1.8216   -3.9359   16.1776 H   0  0  0  0  0  0
   -4.2372   -2.1156   12.7417 H   0  0  0  0  0  0
   -3.2786   -3.5474   12.8241 H   0  0  0  0  0  0
   -5.6763   -3.9587   12.0623 H   0  0  0  0  0  0
   -5.1242   -4.9528   13.4111 H   0  0  0  0  0  0
  1  2  2  0  0  0
  2 33  1  0  0  0
  2  3  2  0  0  0
  2  4  1  0  0  0
  4  5  1  0  0  0
  4 35  1  0  0  0
  4 36  1  0  0  0
  5  6  1  0  0  0
  5 37  1  0  0  0
  5 38  1  0  0  0
  6  7  1  0  0  0
  6 32  1  0  0  0
  7 31  1  0  0  0
  7  8  2  0  0  0
  8  9  1  0  0  0
  8 39  1  0  0  0
  9 10  2  0  0  0
  9 40  1  0  0  0
 10 11  1  0  0  0
 10 30  1  0  0  0
 11 12  1  0  0  0
 11 41  1  0  0  0
 12 29  1  0  0  0
 12 13  2  0  0  0
 13 14  1  0  0  0
 14 15  1  0  0  0
 14 24  2  0  0  0
 15 23  1  0  0  0
 15 16  2  0  0  0
 16 17  1  0  0  0
 16 42  1  0  0  0
 17 18  2  0  0  0
 17 43  1  0  0  0
 18 22  1  0  0  0
 18 19  1  0  0  0
 19 20  2  0  0  0
 19 44  1  0  0  0
 20 21  1  0  0  0
 21 34  1  0  0  0
 21 22  1  0  0  0
 22 23  2  0  0  0
 23 45  1  0  0  0
 24 25  1  0  0  0
 24 46  1  0  0  0
 25 29  1  0  0  0
 25 26  1  0  0  0
 26 27  2  0  0  0
 26 47  1  0  0  0
 27 28  1  0  0  0
 27 48  1  0  0  0
 28 29  2  0  0  0
 30 31  2  0  0  0
 30 49  1  0  0  0
 31 50  1  0  0  0
 32 33  1  0  0  0
 32 51  1  0  0  0
 32 52  1  0  0  0
 33 53  1  0  0  0
 33 54  1  0  0  0
M  END
> <s_m_source_file>
/home/user-home/yujie/0_PBCNetv2/data/FEP/syk/inp_ligprep.csv

> <i_m_source_file_index>
3

> <i_lp_mmshare_version>
51139

> <i_f3d_flags>
0

> <s_epik_input>
Tz1TMSg9TylbQ0gyXVtDSDJdTihbQ0gyXVtDSDJdMSljMltjSF1bY0hdYyhbY0hdW2NIXTIpW05IXWMoYyhuMzQpbltjSF1bY0hdNCluYyhbY0hdMyktYyhbY0hdW2NIXTUpW2NIXWMoYzU2KVtuSF1uW2NIXTY=

> <s_epik_cmdline>
J2VwaWtfcHl0aG9uJywgJy1waHQnLCAnMi4wJywgJy1waCcsICc3LjQnLCAnLXRuJywgJzgnLCAnLW1hJywgJzIwMCcsICctaW1hZScsICc8aW5maWxlLm1hZT4nLCAnLW9tYWUnLCAnPG91dGZpbGUubWFlPic=

> <r_lp_tautomer_probability>
0.980392

> <r_epik_Ionization_Penalty>
  0.0009

> <r_epik_Ionization_Penalty_Charging>
  0.0009

> <r_epik_Ionization_Penalty_Neutral>
  0.0000

> <r_epik_State_Penalty>
  0.0090

> <r_epik_Charging_Adjusted_Penalty>
0.00989682

> <i_epik_Tot_Q>
0

> <i_epik_Tot_abs_Q>
0

> <s_lp_Force_Field>
OPLS3e

> <r_lp_Energy>
33.0051

> <b_lp_Chiralities_Consistent>
1

> <s_lp_Variant>
lig_syk_CHEMBL3265033-1

> <s_i_glide_gridfile>
syk-001-gridgen

> <i_i_glide_lignum>
4

> <i_i_glide_rotatable_bonds>
4

> <r_i_docking_score>
-7.79769000893763

> <r_i_glide_ligand_efficiency>
-0.236293636634474

> <r_i_glide_ligand_efficiency_sa>
-0.757919950581276

> <r_i_glide_ligand_efficiency_ln>
-1.73416588370965

> <r_i_glide_gscore>
-7.80673526893763

> <r_i_glide_lipo>
-2.69169337425711

> <r_i_glide_hbond>
-0.175796468488341

> <r_i_glide_metal>
-0

> <r_i_glide_rewards>
-1.59498632095799

> <r_i_glide_evdw>
-47.3963623046875

> <r_i_glide_ecoul>
-8.10473823547363

> <r_i_glide_erotb>
0.381152021844111

> <r_i_glide_esite>
-0.139882276522879

> <r_i_glide_emodel>
-81.0958653486127

> <r_i_glide_energy>
-55.5011005401611

> <r_i_glide_einternal>
0.953559517860413

> <i_i_glide_confnum>
354

> <i_i_glide_posenum>
324

> <r_i_glide_eff_state_penalty>
0.00904526

$$$$
