lig_syk_CHEMBL3265017
                    3D
 Schrodinger Suite 2020-3.
 47 51  0  0  1  0            999 V2000
   -4.7815   -3.0069   15.2755 C   0  0  0  0  0  0
   -4.1184   -1.9497   14.5841 O   0  0  0  0  0  0
   -2.7419   -1.8398   14.6809 C   0  0  0  0  0  0
   -1.9361   -2.7441   15.3962 C   0  0  0  0  0  0
   -0.5604   -2.5505   15.4880 C   0  0  0  0  0  0
    0.0487   -1.4597   14.8722 C   0  0  0  0  0  0
    1.4296   -1.2918   15.0746 N   0  0  0  0  0  0
    2.4020   -0.4020   14.5759 C   0  0  0  0  0  0
    2.0950    0.4598   13.5699 N   0  0  0  0  0  0
    3.0179    1.3441   13.1047 C   0  0  0  0  0  0
    2.5614    2.3072   12.0600 C   0  0  0  0  0  0
    3.4483    2.7492   11.0682 C   0  0  0  0  0  0
    3.0671    3.6537   10.0772 C   0  0  0  0  0  0
    1.7530    4.1361   10.0816 C   0  0  0  0  0  0
    0.9955    5.0462    9.3015 C   0  0  0  0  0  0
   -0.2543    5.0517    9.8676 N   0  0  0  0  0  0
   -0.4089    4.2496   10.9346 N   0  0  0  0  0  0
    0.8317    3.6919   11.0784 C   0  0  0  0  0  0
    1.2429    2.7859   12.0643 C   0  0  0  0  0  0
    4.3126    1.3724   13.6224 C   0  0  0  0  0  0
    4.6207    0.5114   14.6379 N   0  0  0  0  0  0
    5.7594    0.3448   15.3752 C   0  0  0  0  0  0
    5.4485   -0.6494   16.2980 C   0  0  0  0  0  0
    4.2302   -1.1323   16.1740 N   0  0  0  0  0  0
    3.6881   -0.4039   15.1576 C   0  0  0  0  0  0
   -0.7480   -0.5735   14.1398 C   0  0  0  0  0  0
   -2.1379   -0.7489   14.0372 C   0  0  0  0  0  0
   -2.9699    0.1202   13.3470 O   0  0  0  0  0  0
   -2.3918    1.1600   12.5588 C   0  0  0  0  0  0
   -1.0224    5.6174    9.5306 H   0  0  0  0  0  0
   -5.8554   -2.9316   15.1062 H   0  0  0  0  0  0
   -4.6133   -2.9481   16.3533 H   0  0  0  0  0  0
   -4.4576   -3.9851   14.9149 H   0  0  0  0  0  0
   -2.3598   -3.5923   15.9124 H   0  0  0  0  0  0
    0.0284   -3.2504   16.0666 H   0  0  0  0  0  0
    1.8086   -1.9166   15.7753 H   0  0  0  0  0  0
    4.4622    2.3772   11.0522 H   0  0  0  0  0  0
    3.7742    3.9742    9.3257 H   0  0  0  0  0  0
    1.2149    5.6672    8.4456 H   0  0  0  0  0  0
    0.5485    2.4689   12.8269 H   0  0  0  0  0  0
    5.0810    2.0673   13.3173 H   0  0  0  0  0  0
    6.6552    0.9237   15.2121 H   0  0  0  0  0  0
    6.1216   -1.0240   17.0536 H   0  0  0  0  0  0
   -0.2958    0.2821   13.6741 H   0  0  0  0  0  0
   -3.1786    1.6981   12.0314 H   0  0  0  0  0  0
   -1.8574    1.8839   13.1754 H   0  0  0  0  0  0
   -1.7112    0.7609   11.8038 H   0  0  0  0  0  0
  1  2  1  0  0  0
  1 31  1  0  0  0
  1 32  1  0  0  0
  1 33  1  0  0  0
  2  3  1  0  0  0
  3 27  1  0  0  0
  3  4  2  0  0  0
  4  5  1  0  0  0
  4 34  1  0  0  0
  5  6  2  0  0  0
  5 35  1  0  0  0
  6  7  1  0  0  0
  6 26  1  0  0  0
  7  8  1  0  0  0
  7 36  1  0  0  0
  8 25  1  0  0  0
  8  9  2  0  0  0
  9 10  1  0  0  0
 10 20  2  0  0  0
 10 11  1  0  0  0
 11 19  2  0  0  0
 11 12  1  0  0  0
 12 37  1  0  0  0
 12 13  2  0  0  0
 13 38  1  0  0  0
 13 14  1  0  0  0
 14 18  1  0  0  0
 14 15  2  0  0  0
 15 16  1  0  0  0
 15 39  1  0  0  0
 16 30  1  0  0  0
 16 17  1  0  0  0
 17 18  2  0  0  0
 18 19  1  0  0  0
 19 40  1  0  0  0
 20 21  1  0  0  0
 20 41  1  0  0  0
 21 25  1  0  0  0
 21 22  1  0  0  0
 22 23  2  0  0  0
 22 42  1  0  0  0
 23 24  1  0  0  0
 23 43  1  0  0  0
 24 25  2  0  0  0
 26 27  2  0  0  0
 26 44  1  0  0  0
 27 28  1  0  0  0
 28 29  1  0  0  0
 29 45  1  0  0  0
 29 46  1  0  0  0
 29 47  1  0  0  0
M  END
> <s_m_source_file>
/home/user-home/yujie/0_PBCNetv2/data/FEP/syk/inp_ligprep.csv

> <i_m_source_file_index>
29

> <i_lp_mmshare_version>
51139

> <i_f3d_flags>
0

> <s_epik_input>
W0NIM11PYzFbY0hdW2NIXWMoW2NIXWMxT1tDSDNdKVtOSF1jKGMobjIzKW5bY0hdW2NIXTMpbmMoW2NIXTIpLWMoW2NIXVtjSF00KVtjSF1jKGM0NSlbbkhdbltjSF01

> <s_epik_cmdline>
J2VwaWtfcHl0aG9uJywgJy1waHQnLCAnMi4wJywgJy1waCcsICc3LjQnLCAnLXRuJywgJzgnLCAnLW1hJywgJzIwMCcsICctaW1hZScsICc8aW5maWxlLm1hZT4nLCAnLW9tYWUnLCAnPG91dGZpbGUubWFlPic=

> <r_lp_tautomer_probability>
0.0196078

> <r_epik_Ionization_Penalty>
  0.0009

> <r_epik_Ionization_Penalty_Charging>
  0.0009

> <r_epik_Ionization_Penalty_Neutral>
  0.0000

> <r_epik_State_Penalty>
  2.4823

> <r_epik_Charging_Adjusted_Penalty>
2.48319

> <i_epik_Tot_Q>
0

> <i_epik_Tot_abs_Q>
0

> <s_lp_Force_Field>
OPLS3e

> <r_lp_Energy>
43.6864

> <b_lp_Chiralities_Consistent>
1

> <s_lp_Variant>
lig_syk_CHEMBL3265017-2

> <s_i_glide_gridfile>
syk-001-gridgen

> <i_i_glide_lignum>
47

> <i_i_glide_rotatable_bonds>
5

> <r_i_docking_score>
-5.48325821363878

> <r_i_glide_ligand_efficiency>
-0.18907786943582

> <r_i_glide_ligand_efficiency_sa>
-0.580907118980473

> <r_i_glide_ligand_efficiency_ln>
-1.25552708749198

> <r_i_glide_gscore>
-7.96559821363878

> <r_i_glide_lipo>
-2.4879175203268

> <r_i_glide_hbond>
-0.42569168948827

> <r_i_glide_metal>
-0

> <r_i_glide_rewards>
-2.18939272425885

> <r_i_glide_evdw>
-43.8240776062012

> <r_i_glide_ecoul>
-7.08301544189453

> <r_i_glide_erotb>
0.391059917029375

> <r_i_glide_esite>
0

> <r_i_glide_emodel>
-75.5704829404344

> <r_i_glide_energy>
-50.9070930480957

> <r_i_glide_einternal>
1.07189047336578

> <i_i_glide_confnum>
9

> <i_i_glide_posenum>
5

> <r_i_glide_eff_state_penalty>
2.48234

$$$$
