lig_syk_CHEMBL3265037
                    3D
 Schrodinger Suite 2020-3.
 56 61  0  0  1  0            999 V2000
   -2.2341    0.8549   12.3948 C   0  0  0  0  0  0
   -2.7970   -0.0560   13.3374 O   0  0  0  0  0  0
   -1.9572   -0.9249   14.0176 C   0  0  0  0  0  0
   -0.5865   -0.6667   14.1710 C   0  0  0  0  0  0
    0.2402   -1.5220   14.9030 C   0  0  0  0  0  0
    1.6087   -1.2900   15.1043 N   0  0  0  0  0  0
    2.5453   -0.3939   14.5575 C   0  0  0  0  0  0
    2.2082    0.4340   13.5291 N   0  0  0  0  0  0
    3.1060    1.3367   13.0450 C   0  0  0  0  0  0
    2.6282    2.2793   11.9919 C   0  0  0  0  0  0
    3.4966    2.6823   10.9664 C   0  0  0  0  0  0
    3.1049    3.5713    9.9653 C   0  0  0  0  0  0
    1.7992    4.0747    9.9979 C   0  0  0  0  0  0
    1.0204    4.9757    9.2138 C   0  0  0  0  0  0
   -0.1906    5.1051    9.6894 N   0  0  0  0  0  0
   -0.2621    4.3283   10.7847 N   0  0  0  0  0  0
    0.9252    3.6681   11.0317 C   0  0  0  0  0  0
    1.3166    2.7797   12.0367 C   0  0  0  0  0  0
    4.3999    1.4122   13.5551 C   0  0  0  0  0  0
    4.7328    0.5870   14.5896 N   0  0  0  0  0  0
    5.8690    0.4874   15.3412 C   0  0  0  0  0  0
    5.5780   -0.4628   16.3118 C   0  0  0  0  0  0
    4.3907   -1.0133   16.1761 N   0  0  0  0  0  0
    3.8303   -0.3451   15.1318 C   0  0  0  0  0  0
   -0.3215   -2.6434   15.5104 C   0  0  0  0  0  0
   -1.6802   -2.9158   15.3745 C   0  0  0  0  0  0
   -2.5041   -2.0829   14.6106 C   0  0  0  0  0  0
   -3.8562   -2.3898   14.5532 N   0  0  0  0  0  0
   -4.7107   -1.7029   15.5351 C   0  0  0  0  0  0
   -6.1799   -2.1738   15.5161 C   0  0  0  0  0  0
   -6.6902   -2.0891   14.1912 O   0  0  0  0  0  0
   -5.9828   -2.9562   13.3143 C   0  0  0  0  0  0
   -4.5070   -2.5165   13.2349 C   0  0  0  0  0  0
   -1.1113    4.2939   11.3275 H   0  0  0  0  0  0
   -3.0318    1.2853   11.7893 H   0  0  0  0  0  0
   -1.7253    1.6777   12.8978 H   0  0  0  0  0  0
   -1.5358    0.3628   11.7135 H   0  0  0  0  0  0
   -0.1776    0.2315   13.7475 H   0  0  0  0  0  0
    2.0124   -1.8816   15.8182 H   0  0  0  0  0  0
    4.5026    2.2893   10.9341 H   0  0  0  0  0  0
    3.7927    3.8643    9.1863 H   0  0  0  0  0  0
    1.3310    5.5222    8.3367 H   0  0  0  0  0  0
    0.6394    2.4946   12.8276 H   0  0  0  0  0  0
    5.1430    2.1277   13.2373 H   0  0  0  0  0  0
    6.7399    1.1025   15.1714 H   0  0  0  0  0  0
    6.2311   -0.7480   17.1222 H   0  0  0  0  0  0
    0.2899   -3.3064   16.1071 H   0  0  0  0  0  0
   -2.0920   -3.7840   15.8704 H   0  0  0  0  0  0
   -4.6510   -0.6270   15.3774 H   0  0  0  0  0  0
   -4.3051   -1.8808   16.5326 H   0  0  0  0  0  0
   -6.2669   -3.1922   15.9024 H   0  0  0  0  0  0
   -6.7848   -1.5464   16.1715 H   0  0  0  0  0  0
   -6.0671   -3.9953   13.6397 H   0  0  0  0  0  0
   -6.4393   -2.9049   12.3253 H   0  0  0  0  0  0
   -3.9541   -3.2570   12.6554 H   0  0  0  0  0  0
   -4.4393   -1.5931   12.6644 H   0  0  0  0  0  0
  1  2  1  0  0  0
  1 35  1  0  0  0
  1 36  1  0  0  0
  1 37  1  0  0  0
  2  3  1  0  0  0
  3 27  1  0  0  0
  3  4  2  0  0  0
  4  5  1  0  0  0
  4 38  1  0  0  0
  5  6  1  0  0  0
  5 25  2  0  0  0
  6  7  1  0  0  0
  6 39  1  0  0  0
  7 24  1  0  0  0
  7  8  2  0  0  0
  8  9  1  0  0  0
  9 10  1  0  0  0
  9 19  2  0  0  0
 10 18  1  0  0  0
 10 11  2  0  0  0
 11 12  1  0  0  0
 11 40  1  0  0  0
 12 13  2  0  0  0
 12 41  1  0  0  0
 13 17  1  0  0  0
 13 14  1  0  0  0
 14 15  2  0  0  0
 14 42  1  0  0  0
 15 16  1  0  0  0
 16 34  1  0  0  0
 16 17  1  0  0  0
 17 18  2  0  0  0
 18 43  1  0  0  0
 19 20  1  0  0  0
 19 44  1  0  0  0
 20 24  1  0  0  0
 20 21  1  0  0  0
 21 22  2  0  0  0
 21 45  1  0  0  0
 22 23  1  0  0  0
 22 46  1  0  0  0
 23 24  2  0  0  0
 25 26  1  0  0  0
 25 47  1  0  0  0
 26 27  2  0  0  0
 26 48  1  0  0  0
 27 28  1  0  0  0
 28 33  1  0  0  0
 28 29  1  0  0  0
 29 30  1  0  0  0
 29 49  1  0  0  0
 29 50  1  0  0  0
 30 31  1  0  0  0
 30 51  1  0  0  0
 30 52  1  0  0  0
 31 32  1  0  0  0
 32 33  1  0  0  0
 32 53  1  0  0  0
 32 54  1  0  0  0
 33 55  1  0  0  0
 33 56  1  0  0  0
M  END
> <s_m_source_file>
/home/user-home/yujie/0_PBCNetv2/data/FEP/syk/inp_ligprep.csv

> <i_m_source_file_index>
30

> <i_lp_mmshare_version>
51139

> <i_f3d_flags>
0

> <s_epik_input>
W0NIMl0xW0NIMl1PW0NIMl1bQ0gyXU4xYzJbY0hdW2NIXWMoW2NIXWMyT1tDSDNdKVtOSF1jKGMobjM0KW5bY0hdW2NIXTQpbmMoW2NIXTMpLWMoW2NIXVtjSF01KVtjSF1jKGM1NilbbkhdbltjSF02

> <s_epik_cmdline>
J2VwaWtfcHl0aG9uJywgJy1waHQnLCAnMi4wJywgJy1waCcsICc3LjQnLCAnLXRuJywgJzgnLCAnLW1hJywgJzIwMCcsICctaW1hZScsICc8aW5maWxlLm1hZT4nLCAnLW9tYWUnLCAnPG91dGZpbGUubWFlPic=

> <r_lp_tautomer_probability>
0.980392

> <r_epik_Ionization_Penalty>
  0.0009

> <r_epik_Ionization_Penalty_Charging>
  0.0009

> <r_epik_Ionization_Penalty_Neutral>
  0.0000

> <r_epik_State_Penalty>
  0.0090

> <r_epik_Charging_Adjusted_Penalty>
0.00989682

> <i_epik_Tot_Q>
0

> <i_epik_Tot_abs_Q>
0

> <s_lp_Force_Field>
OPLS3e

> <r_lp_Energy>
53.9854

> <b_lp_Chiralities_Consistent>
1

> <s_lp_Variant>
lig_syk_CHEMBL3265037-1

> <s_i_glide_gridfile>
syk-001-gridgen

> <i_i_glide_lignum>
48

> <i_i_glide_rotatable_bonds>
5

> <r_i_docking_score>
-8.32520090907101

> <r_i_glide_ligand_efficiency>
-0.252278815426394

> <r_i_glide_ligand_efficiency_sa>
-0.809192960267724

> <r_i_glide_ligand_efficiency_ln>
-1.85148157659405

> <r_i_glide_gscore>
-8.33424616907101

> <r_i_glide_lipo>
-2.65071946962395

> <r_i_glide_hbond>
-0.500049553597822

> <r_i_glide_metal>
-0

> <r_i_glide_rewards>
-1.83583476633769

> <r_i_glide_evdw>
-48.8401527404785

> <r_i_glide_ecoul>
-8.52900505065918

> <r_i_glide_erotb>
0.409943003263403

> <r_i_glide_esite>
-0.0362269881521585

> <r_i_glide_emodel>
-83.3449643194157

> <r_i_glide_energy>
-57.3691577911377

> <r_i_glide_einternal>
2.8736515045166

> <i_i_glide_confnum>
37

> <i_i_glide_posenum>
130

> <r_i_glide_eff_state_penalty>
0.00904526

$$$$
