lig_syk_CHEMBL3265025
                    3D
 Schrodinger Suite 2020-3.
 50 54  0  0  1  0            999 V2000
   -4.7795   -2.9693   15.4419 C   0  0  0  0  0  0
   -4.1175   -1.9653   14.6762 O   0  0  0  0  0  0
   -2.7375   -1.8638   14.7470 C   0  0  0  0  0  0
   -1.9277   -2.7483   15.4820 C   0  0  0  0  0  0
   -0.5490   -2.5607   15.5500 C   0  0  0  0  0  0
    0.0588   -1.4945   14.8887 C   0  0  0  0  0  0
    1.4428   -1.3255   15.0741 N   0  0  0  0  0  0
    2.4023   -0.4196   14.5827 C   0  0  0  0  0  0
    2.0795    0.4435   13.5839 N   0  0  0  0  0  0
    2.9848    1.3467   13.1205 C   0  0  0  0  0  0
    2.5023    2.2940   12.0744 C   0  0  0  0  0  0
    3.3613    2.7531   11.0603 C   0  0  0  0  0  0
    2.9011    3.5991   10.0471 C   0  0  0  0  0  0
    1.5667    4.0004   10.0409 C   0  0  0  0  0  0
    0.7105    3.5709   11.0540 C   0  0  0  0  0  0
    1.1668    2.7296   12.0632 C   0  0  0  0  0  0
   -0.6269    3.9096   11.0088 O   0  0  0  0  0  0
   -0.9034    5.2010   10.4155 C   0  0  0  0  0  0
   -0.1433    5.4544    9.0791 C   0  0  0  0  0  0
   -0.5702    6.1434    8.1553 O   0  0  0  0  0  0
    1.0446    4.8176    9.0415 N   0  0  0  0  0  0
    4.2812    1.3941   13.6303 C   0  0  0  0  0  0
    4.6077    0.5311   14.6401 N   0  0  0  0  0  0
    5.7508    0.3810   15.3752 C   0  0  0  0  0  0
    5.4607   -0.6227   16.2937 C   0  0  0  0  0  0
    4.2490   -1.1244   16.1751 N   0  0  0  0  0  0
    3.6909   -0.4026   15.1608 C   0  0  0  0  0  0
   -0.7424   -0.6356   14.1276 C   0  0  0  0  0  0
   -2.1358   -0.8051   14.0504 C   0  0  0  0  0  0
   -2.9699    0.0444   13.3376 O   0  0  0  0  0  0
   -2.3993    1.0488   12.5036 C   0  0  0  0  0  0
   -5.8562   -2.8850   15.2934 H   0  0  0  0  0  0
   -4.5853   -2.8537   16.5095 H   0  0  0  0  0  0
   -4.4830   -3.9715   15.1282 H   0  0  0  0  0  0
   -2.3494   -3.5760   16.0322 H   0  0  0  0  0  0
    0.0428   -3.2407   16.1481 H   0  0  0  0  0  0
    1.8298   -1.9647   15.7561 H   0  0  0  0  0  0
    4.3914    2.4302   11.0357 H   0  0  0  0  0  0
    3.5774    3.9255    9.2702 H   0  0  0  0  0  0
    0.4763    2.3997   12.8234 H   0  0  0  0  0  0
   -1.9717    5.3378   10.2556 H   0  0  0  0  0  0
   -0.5553    5.9766   11.0985 H   0  0  0  0  0  0
    1.5954    5.0105    8.2191 H   0  0  0  0  0  0
    5.0359    2.1024   13.3234 H   0  0  0  0  0  0
    6.6361    0.9765   15.2133 H   0  0  0  0  0  0
    6.1418   -0.9842   17.0483 H   0  0  0  0  0  0
   -0.2972    0.1967   13.6186 H   0  0  0  0  0  0
   -3.1920    1.5548   11.9528 H   0  0  0  0  0  0
   -1.8748    1.8054   13.0887 H   0  0  0  0  0  0
   -1.7143    0.6234   11.7678 H   0  0  0  0  0  0
  1  2  1  0  0  0
  1 32  1  0  0  0
  1 33  1  0  0  0
  1 34  1  0  0  0
  2  3  1  0  0  0
  3 29  1  0  0  0
  3  4  2  0  0  0
  4  5  1  0  0  0
  4 35  1  0  0  0
  5  6  2  0  0  0
  5 36  1  0  0  0
  6  7  1  0  0  0
  6 28  1  0  0  0
  7  8  1  0  0  0
  7 37  1  0  0  0
  8 27  1  0  0  0
  8  9  2  0  0  0
  9 10  1  0  0  0
 10 11  1  0  0  0
 10 22  2  0  0  0
 11 16  1  0  0  0
 11 12  2  0  0  0
 12 13  1  0  0  0
 12 38  1  0  0  0
 13 14  2  0  0  0
 13 39  1  0  0  0
 14 21  1  0  0  0
 14 15  1  0  0  0
 15 16  2  0  0  0
 15 17  1  0  0  0
 16 40  1  0  0  0
 17 18  1  0  0  0
 18 19  1  0  0  0
 18 41  1  0  0  0
 18 42  1  0  0  0
 19 20  2  0  0  0
 19 21  1  0  0  0
 21 43  1  0  0  0
 22 23  1  0  0  0
 22 44  1  0  0  0
 23 27  1  0  0  0
 23 24  1  0  0  0
 24 25  2  0  0  0
 24 45  1  0  0  0
 25 26  1  0  0  0
 25 46  1  0  0  0
 26 27  2  0  0  0
 28 29  2  0  0  0
 28 47  1  0  0  0
 29 30  1  0  0  0
 30 31  1  0  0  0
 31 48  1  0  0  0
 31 49  1  0  0  0
 31 50  1  0  0  0
M  END
> <s_m_source_file>
/home/user-home/yujie/0_PBCNetv2/data/FEP/syk/inp_ligprep.csv

> <i_m_source_file_index>
18

> <i_lp_mmshare_version>
51139

> <i_f3d_flags>
0

> <s_epik_input>
W0NIM11PYzFbY0hdW2NIXWMoW2NIXWMxT1tDSDNdKVtOSF1jKGMobjIzKW5bY0hdW2NIXTMpbmMoW2NIXTIpLWMoW2NIXVtjSF00KVtjSF1jKGM0NSlPW0NIMl1DKD1PKVtOSF01

> <s_epik_cmdline>
J2VwaWtfcHl0aG9uJywgJy1waHQnLCAnMi4wJywgJy1waCcsICc3LjQnLCAnLXRuJywgJzgnLCAnLW1hJywgJzIwMCcsICctaW1hZScsICc8aW5maWxlLm1hZT4nLCAnLW9tYWUnLCAnPG91dGZpbGUubWFlPic=

> <r_lp_tautomer_probability>
1

> <r_epik_Ionization_Penalty>
  0.0009

> <r_epik_Ionization_Penalty_Charging>
  0.0009

> <r_epik_Ionization_Penalty_Neutral>
  0.0000

> <r_epik_State_Penalty>
  0.0005

> <r_epik_Charging_Adjusted_Penalty>
0.00140069

> <i_epik_Tot_Q>
0

> <i_epik_Tot_abs_Q>
0

> <s_lp_Force_Field>
OPLS3e

> <r_lp_Energy>
52.563

> <b_lp_Chiralities_Consistent>
1

> <s_lp_Variant>
lig_syk_CHEMBL3265025-1

> <s_i_glide_gridfile>
syk-001-gridgen

> <i_i_glide_lignum>
33

> <i_i_glide_rotatable_bonds>
5

> <r_i_docking_score>
-7.9947402237851

> <r_i_glide_ligand_efficiency>
-0.257894845928552

> <r_i_glide_ligand_efficiency_sa>
-0.810145878424068

> <r_i_glide_ligand_efficiency_ln>
-1.80305892982689

> <r_i_glide_gscore>
-7.9952893507851

> <r_i_glide_lipo>
-2.47568943730727

> <r_i_glide_hbond>
-0.422909825651582

> <r_i_glide_metal>
-0

> <r_i_glide_rewards>
-2.01625056620964

> <r_i_glide_evdw>
-45.2735023498535

> <r_i_glide_ecoul>
-7.7138352394104

> <r_i_glide_erotb>
0.340310881787634

> <r_i_glide_esite>
0

> <r_i_glide_emodel>
-78.9786250838409

> <r_i_glide_energy>
-52.9873375892639

> <r_i_glide_einternal>
0.717059135437012

> <i_i_glide_confnum>
19

> <i_i_glide_posenum>
359

> <r_i_glide_eff_state_penalty>
0.000549127

$$$$
