lig_syk_CHEMBL3265023
                    3D
 Schrodinger Suite 2020-3.
 50 54  0  0  1  0            999 V2000
   -4.6281   -2.9956   15.8602 C   0  0  0  0  0  0
   -4.0071   -2.0807   14.9619 O   0  0  0  0  0  0
   -2.6279   -1.9531   14.9750 C   0  0  0  0  0  0
   -1.7802   -2.7479   15.7662 C   0  0  0  0  0  0
   -0.4043   -2.5302   15.7730 C   0  0  0  0  0  0
    0.1623   -1.5214   14.9936 C   0  0  0  0  0  0
    1.5470   -1.3122   15.1261 N   0  0  0  0  0  0
    2.4744   -0.4054   14.5788 C   0  0  0  0  0  0
    2.1092    0.4373   13.5742 N   0  0  0  0  0  0
    2.9890    1.3520   13.0830 C   0  0  0  0  0  0
    2.4669    2.3422   12.0954 C   0  0  0  0  0  0
    3.3124    2.8732   11.1104 C   0  0  0  0  0  0
    2.9073    3.8656   10.2165 C   0  0  0  0  0  0
    1.5899    4.3191   10.3350 C   0  0  0  0  0  0
    0.6945    3.7858   11.2921 C   0  0  0  0  0  0
   -0.5234    4.4969   11.0784 C   0  0  0  0  0  0
   -0.3958    5.3913   10.1327 N   0  0  0  0  0  0
    0.8665    5.2952    9.6705 N   0  0  0  0  0  0
    1.3303    6.2545    8.6833 C   0  0  0  0  0  0
    1.1396    2.7906   12.1714 C   0  0  0  0  0  0
    4.2984    1.4198   13.5561 C   0  0  0  0  0  0
    4.6602    0.5880   14.5762 N   0  0  0  0  0  0
    5.8182    0.4853   15.2964 C   0  0  0  0  0  0
    5.5507   -0.4635   16.2759 C   0  0  0  0  0  0
    4.3554   -1.0081   16.1753 N   0  0  0  0  0  0
    3.7717   -0.3477   15.1354 C   0  0  0  0  0  0
   -0.6760   -0.7550   14.1755 C   0  0  0  0  0  0
   -2.0674   -0.9605   14.1562 C   0  0  0  0  0  0
   -2.9388   -0.2117   13.3786 O   0  0  0  0  0  0
   -2.4116    0.7346   12.4517 C   0  0  0  0  0  0
   -5.7102   -2.9349   15.7456 H   0  0  0  0  0  0
   -4.3324   -4.0249   15.6516 H   0  0  0  0  0  0
   -4.3933   -2.7584   16.8996 H   0  0  0  0  0  0
   -2.1691   -3.5248   16.4077 H   0  0  0  0  0  0
    0.2164   -3.1375   16.4186 H   0  0  0  0  0  0
    1.9654   -1.8980   15.8365 H   0  0  0  0  0  0
    4.3303    2.5189   11.0392 H   0  0  0  0  0  0
    3.5885    4.2690    9.4822 H   0  0  0  0  0  0
   -1.4541    4.3882   11.6141 H   0  0  0  0  0  0
    2.2112    5.8630    8.1763 H   0  0  0  0  0  0
    0.5461    6.4526    7.9512 H   0  0  0  0  0  0
    1.5981    7.1829    9.1891 H   0  0  0  0  0  0
    0.4745    2.4031   12.9284 H   0  0  0  0  0  0
    5.0294    2.1460   13.2356 H   0  0  0  0  0  0
    6.6856    1.0989   15.1030 H   0  0  0  0  0  0
    6.2302   -0.7490   17.0645 H   0  0  0  0  0  0
   -0.2570    0.0236   13.5666 H   0  0  0  0  0  0
   -3.2277    1.1696   11.8754 H   0  0  0  0  0  0
   -1.8979    1.5501   12.9625 H   0  0  0  0  0  0
   -1.7269    0.2658   11.7428 H   0  0  0  0  0  0
  1  2  1  0  0  0
  1 31  1  0  0  0
  1 32  1  0  0  0
  1 33  1  0  0  0
  2  3  1  0  0  0
  3 28  1  0  0  0
  3  4  2  0  0  0
  4  5  1  0  0  0
  4 34  1  0  0  0
  5  6  2  0  0  0
  5 35  1  0  0  0
  6  7  1  0  0  0
  6 27  1  0  0  0
  7  8  1  0  0  0
  7 36  1  0  0  0
  8 26  1  0  0  0
  8  9  2  0  0  0
  9 10  1  0  0  0
 10 11  1  0  0  0
 10 21  2  0  0  0
 11 20  1  0  0  0
 11 12  2  0  0  0
 12 13  1  0  0  0
 12 37  1  0  0  0
 13 14  2  0  0  0
 13 38  1  0  0  0
 14 18  1  0  0  0
 14 15  1  0  0  0
 15 16  1  0  0  0
 15 20  2  0  0  0
 16 17  2  0  0  0
 16 39  1  0  0  0
 17 18  1  0  0  0
 18 19  1  0  0  0
 19 40  1  0  0  0
 19 41  1  0  0  0
 19 42  1  0  0  0
 20 43  1  0  0  0
 21 22  1  0  0  0
 21 44  1  0  0  0
 22 26  1  0  0  0
 22 23  1  0  0  0
 23 24  2  0  0  0
 23 45  1  0  0  0
 24 25  1  0  0  0
 24 46  1  0  0  0
 25 26  2  0  0  0
 27 28  2  0  0  0
 27 47  1  0  0  0
 28 29  1  0  0  0
 29 30  1  0  0  0
 30 48  1  0  0  0
 30 49  1  0  0  0
 30 50  1  0  0  0
M  END
> <s_m_source_file>
/home/user-home/yujie/0_PBCNetv2/data/FEP/syk/inp_ligprep.csv

> <i_m_source_file_index>
6

> <i_lp_mmshare_version>
51139

> <i_f3d_flags>
0

> <s_epik_input>
W0NIM11PYzFbY0hdW2NIXWMoW2NIXWMxT1tDSDNdKVtOSF1jKGMobjIzKW5bY0hdW2NIXTMpbmMoW2NIXTIpLWMoW2NIXVtjSF00KVtjSF1jKGM0NSlbY0hdbm41W0NIM10=

> <s_epik_cmdline>
J2VwaWtfcHl0aG9uJywgJy1waHQnLCAnMi4wJywgJy1waCcsICc3LjQnLCAnLXRuJywgJzgnLCAnLW1hJywgJzIwMCcsICctaW1hZScsICc8aW5maWxlLm1hZT4nLCAnLW9tYWUnLCAnPG91dGZpbGUubWFlPic=

> <r_lp_tautomer_probability>
1

> <r_epik_Ionization_Penalty>
  0.0009

> <r_epik_Ionization_Penalty_Charging>
  0.0009

> <r_epik_Ionization_Penalty_Neutral>
  0.0000

> <r_epik_State_Penalty>
  0.0005

> <r_epik_Charging_Adjusted_Penalty>
0.00140069

> <i_epik_Tot_Q>
0

> <i_epik_Tot_abs_Q>
0

> <s_lp_Force_Field>
OPLS3e

> <r_lp_Energy>
44.269

> <b_lp_Chiralities_Consistent>
1

> <s_lp_Variant>
lig_syk_CHEMBL3265023-1

> <s_i_glide_gridfile>
syk-001-gridgen

> <i_i_glide_lignum>
11

> <i_i_glide_rotatable_bonds>
5

> <r_i_docking_score>
-7.98490572903952

> <r_i_glide_ligand_efficiency>
-0.266163524301317

> <r_i_glide_ligand_efficiency_sa>
-0.82703195367066

> <r_i_glide_ligand_efficiency_ln>
-1.81425758415405

> <r_i_glide_gscore>
-7.98545485603952

> <r_i_glide_lipo>
-2.42434446657356

> <r_i_glide_hbond>
-0.357469819637427

> <r_i_glide_metal>
-0

> <r_i_glide_rewards>
-2.11346208186982

> <r_i_glide_evdw>
-45.9925155639648

> <r_i_glide_ecoul>
-7.71558237075806

> <r_i_glide_erotb>
0.366784645853232

> <r_i_glide_esite>
0

> <r_i_glide_emodel>
-76.6534024622227

> <r_i_glide_energy>
-53.7080979347229

> <r_i_glide_einternal>
4.51035642623901

> <i_i_glide_confnum>
24

> <i_i_glide_posenum>
268

> <r_i_glide_eff_state_penalty>
0.000549127

$$$$
