lig_syk_CHEMBL3265000
                    3D
 Schrodinger Suite 2020-3.
 67 71  0  0  1  0            999 V2000
   -4.7484   -3.0426   15.2229 C   0  0  0  0  0  0
   -4.0977   -1.9791   14.5349 O   0  0  0  0  0  0
   -2.7217   -1.8505   14.6299 C   0  0  0  0  0  0
   -1.9080   -2.7191   15.3792 C   0  0  0  0  0  0
   -0.5334   -2.5103   15.4581 C   0  0  0  0  0  0
    0.0651   -1.4369   14.8016 C   0  0  0  0  0  0
    1.4454   -1.2543   14.9961 N   0  0  0  0  0  0
    2.4051   -0.3501   14.5018 C   0  0  0  0  0  0
    2.0821    0.5288   13.5122 N   0  0  0  0  0  0
    2.9926    1.4316   13.0565 C   0  0  0  0  0  0
    2.5369    2.3817   11.9962 C   0  0  0  0  0  0
    3.4209    2.8102   10.9946 C   0  0  0  0  0  0
    2.9929    3.6443    9.9649 C   0  0  0  0  0  0
    1.6677    4.0665    9.9174 C   0  0  0  0  0  0
    0.7614    3.6830   10.9145 C   0  0  0  0  0  0
   -0.6814    4.1095   10.8140 C   0  0  0  0  0  0
   -1.2288    4.1278    9.7099 O   0  0  0  0  0  0
   -1.2791    4.4763   11.9733 N   0  0  0  0  0  0
   -2.6263    4.8496   12.1706 C   0  0  0  0  0  0
   -3.6687    4.4237   11.3362 C   0  0  0  0  0  0
   -4.9773    4.8226   11.5896 C   0  0  0  0  0  0
   -5.2778    5.6520   12.6777 C   0  0  0  0  0  0
   -6.7202    6.0583   12.9156 C   0  0  0  0  0  0
   -7.6062    5.2549   12.6134 O   0  0  0  0  0  0
   -6.8824    7.2865   13.3460 N   0  5  0  0  0  0
   -8.2986    7.9704   13.3769 S   0  0  0  0  0  0
   -9.0526    7.7530   11.6570 C   0  0  0  0  0  0
   -8.1697    9.4258   13.5101 O   0  0  0  0  0  0
   -9.2318    7.3330   14.3138 O   0  0  0  0  0  0
   -4.2324    6.0538   13.5258 C   0  0  0  0  0  0
   -2.9198    5.6508   13.2759 C   0  0  0  0  0  0
    1.2118    2.8520   11.9527 C   0  0  0  0  0  0
    4.2866    1.4684   13.5756 C   0  0  0  0  0  0
    4.6083    0.5961   14.5778 N   0  0  0  0  0  0
    5.7489    0.4457   15.3177 C   0  0  0  0  0  0
    5.4539   -0.5563   16.2372 C   0  0  0  0  0  0
    4.2389   -1.0504   16.1193 N   0  0  0  0  0  0
    3.6922   -0.3475   15.0845 C   0  0  0  0  0  0
   -0.7395   -0.5865   14.0332 C   0  0  0  0  0  0
   -2.1277   -0.7801   13.9432 C   0  0  0  0  0  0
   -2.9693    0.0499   13.2219 O   0  0  0  0  0  0
   -2.4130    1.0554   12.3816 C   0  0  0  0  0  0
   -5.8209   -2.9905   15.0336 H   0  0  0  0  0  0
   -4.3977   -4.0163   14.8736 H   0  0  0  0  0  0
   -4.5997   -2.9744   16.3033 H   0  0  0  0  0  0
   -2.3232   -3.5507   15.9281 H   0  0  0  0  0  0
    0.0629   -3.1771   16.0672 H   0  0  0  0  0  0
    1.8377   -1.8874   15.6804 H   0  0  0  0  0  0
    4.4463    2.4705   10.9942 H   0  0  0  0  0  0
    3.6846    3.9496    9.1941 H   0  0  0  0  0  0
    1.3482    4.6965    9.0984 H   0  0  0  0  0  0
   -0.6786    4.5714   12.7776 H   0  0  0  0  0  0
   -3.4906    3.7802   10.4890 H   0  0  0  0  0  0
   -5.7602    4.4836   10.9246 H   0  0  0  0  0  0
   -9.9561    8.3552   11.6055 H   0  0  0  0  0  0
   -9.3085    6.7060   11.5006 H   0  0  0  0  0  0
   -8.3292    8.0836   10.9135 H   0  0  0  0  0  0
   -4.4358    6.6728   14.3897 H   0  0  0  0  0  0
   -2.1356    5.9741   13.9463 H   0  0  0  0  0  0
    0.5219    2.5306   12.7198 H   0  0  0  0  0  0
    5.0460    2.1752   13.2789 H   0  0  0  0  0  0
    6.6349    1.0395   15.1571 H   0  0  0  0  0  0
    6.1343   -0.9145   16.9958 H   0  0  0  0  0  0
   -0.3007    0.2517   13.5260 H   0  0  0  0  0  0
   -3.2151    1.5347   11.8194 H   0  0  0  0  0  0
   -1.9134    1.8278   12.9677 H   0  0  0  0  0  0
   -1.7132    0.6387   11.6553 H   0  0  0  0  0  0
  1  2  1  0  0  0
  1 43  1  0  0  0
  1 44  1  0  0  0
  1 45  1  0  0  0
  2  3  1  0  0  0
  3 40  1  0  0  0
  3  4  2  0  0  0
  4  5  1  0  0  0
  4 46  1  0  0  0
  5  6  2  0  0  0
  5 47  1  0  0  0
  6  7  1  0  0  0
  6 39  1  0  0  0
  7  8  1  0  0  0
  7 48  1  0  0  0
  8 38  1  0  0  0
  8  9  2  0  0  0
  9 10  1  0  0  0
 10 11  1  0  0  0
 10 33  2  0  0  0
 11 32  1  0  0  0
 11 12  2  0  0  0
 12 13  1  0  0  0
 12 49  1  0  0  0
 13 14  2  0  0  0
 13 50  1  0  0  0
 14 15  1  0  0  0
 14 51  1  0  0  0
 15 16  1  0  0  0
 15 32  2  0  0  0
 16 17  2  0  0  0
 16 18  1  0  0  0
 18 19  1  0  0  0
 18 52  1  0  0  0
 19 31  1  0  0  0
 19 20  2  0  0  0
 20 21  1  0  0  0
 20 53  1  0  0  0
 21 22  2  0  0  0
 21 54  1  0  0  0
 22 23  1  0  0  0
 22 30  1  0  0  0
 23 24  2  0  0  0
 23 25  1  0  0  0
 25 26  1  0  0  0
 26 27  1  0  0  0
 26 28  2  0  0  0
 26 29  2  0  0  0
 27 55  1  0  0  0
 27 56  1  0  0  0
 27 57  1  0  0  0
 30 31  2  0  0  0
 30 58  1  0  0  0
 31 59  1  0  0  0
 32 60  1  0  0  0
 33 34  1  0  0  0
 33 61  1  0  0  0
 34 38  1  0  0  0
 34 35  1  0  0  0
 35 36  2  0  0  0
 35 62  1  0  0  0
 36 37  1  0  0  0
 36 63  1  0  0  0
 37 38  2  0  0  0
 39 40  2  0  0  0
 39 64  1  0  0  0
 40 41  1  0  0  0
 41 42  1  0  0  0
 42 65  1  0  0  0
 42 66  1  0  0  0
 42 67  1  0  0  0
M  CHG  1  25  -1
M  END
> <s_m_source_file>
/home/user-home/yujie/0_PBCNetv2/data/FEP/syk/inp_ligprep.csv

> <i_m_source_file_index>
26

> <i_lp_mmshare_version>
51139

> <i_f3d_flags>
0

> <s_epik_input>
W0NIM11PYzFbY0hdW2NIXWMoW2NIXWMxT1tDSDNdKVtOSF1jKGMobjIzKW5bY0hdW2NIXTMpbmMoW2NIXTIpLWM0W2NIXVtjSF1bY0hdYyhbY0hdNClDKD1PKVtOSF1jNVtjSF1bY0hdYyhbY0hdW2NIXTUpQyg9TylbTkhdUyg9TykoPU8pW0NIM10=

> <s_epik_cmdline>
J2VwaWtfcHl0aG9uJywgJy1waHQnLCAnMi4wJywgJy1waCcsICc3LjQnLCAnLXRuJywgJzgnLCAnLW1hJywgJzIwMCcsICctaW1hZScsICc8aW5maWxlLm1hZT4nLCAnLW9tYWUnLCAnPG91dGZpbGUubWFlPic=

> <r_lp_tautomer_probability>
1

> <r_epik_Ionization_Penalty>
  0.0025

> <r_epik_Ionization_Penalty_Charging>
  0.0025

> <r_epik_Ionization_Penalty_Neutral>
  0.0000

> <r_epik_State_Penalty>
 -0.0000

> <r_epik_Charging_Adjusted_Penalty>
0.0025001

> <i_epik_Tot_Q>
-1

> <i_epik_Tot_abs_Q>
1

> <s_lp_Force_Field>
OPLS3e

> <r_lp_Energy>
60.1788

> <b_lp_Chiralities_Consistent>
1

> <s_lp_Variant>
lig_syk_CHEMBL3265000-1

> <s_i_glide_gridfile>
syk-001-gridgen

> <i_i_glide_lignum>
42

> <i_i_glide_rotatable_bonds>
11

> <r_i_docking_score>
-9.88634487786484

> <r_i_glide_ligand_efficiency>
-0.235389163758687

> <r_i_glide_ligand_efficiency_sa>
-0.818219004123324

> <r_i_glide_ligand_efficiency_ln>
-2.08675270215381

> <r_i_glide_gscore>
-9.88634487786484

> <r_i_glide_lipo>
-2.93083937958285

> <r_i_glide_hbond>
-0.502336329776367

> <r_i_glide_metal>
-0

> <r_i_glide_rewards>
-1.73194536517761

> <r_i_glide_evdw>
-58.1844215393066

> <r_i_glide_ecoul>
-14.2365589141846

> <r_i_glide_erotb>
0.383685438324991

> <r_i_glide_esite>
-0.0602043275599898

> <r_i_glide_emodel>
-120.671385255257

> <r_i_glide_energy>
-72.4209804534912

> <r_i_glide_einternal>
10.9899654388428

> <i_i_glide_confnum>
134

> <i_i_glide_posenum>
230

> <r_i_glide_eff_state_penalty>
-0

$$$$
