lig_syk_CHEMBL3264995
                    3D
 Schrodinger Suite 2020-3.
 60 64  0  0  1  0            999 V2000
   -4.6715   -2.6139   15.3981 C   0  0  0  0  0  0
   -3.9751   -1.7301   14.5197 O   0  0  0  0  0  0
   -2.5905   -1.6722   14.5740 C   0  0  0  0  0  0
   -1.8103   -2.5132   15.3832 C   0  0  0  0  0  0
   -0.4282   -2.3495   15.4540 C   0  0  0  0  0  0
    0.2120   -1.3559   14.7143 C   0  0  0  0  0  0
    1.5961   -1.1954   14.9215 N   0  0  0  0  0  0
    2.5704   -0.3031   14.4393 C   0  0  0  0  0  0
    2.2740    0.5476   13.4172 N   0  0  0  0  0  0
    3.1911    1.4502   12.9752 C   0  0  0  0  0  0
    2.7552    2.3769   11.8863 C   0  0  0  0  0  0
    3.6574    2.8024   10.9016 C   0  0  0  0  0  0
    3.2429    3.6246    9.8534 C   0  0  0  0  0  0
    1.9148    4.0406    9.7759 C   0  0  0  0  0  0
    0.9931    3.6527   10.7537 C   0  0  0  0  0  0
   -0.4454    4.0929   10.6510 C   0  0  0  0  0  0
   -0.9932    4.1621    9.5487 O   0  0  0  0  0  0
   -1.0334    4.4038   11.8265 N   0  0  0  0  0  0
   -2.3524    4.8263   12.0588 C   0  0  0  0  0  0
   -3.4361    4.4668   11.2443 C   0  0  0  0  0  0
   -4.7158    4.9251   11.5496 C   0  0  0  0  0  0
   -4.9349    5.7382   12.6720 C   0  0  0  0  0  0
   -6.3033    6.2756   12.9753 C   0  0  0  0  0  0
   -7.2838    5.7359   12.4192 O   0  0  0  0  0  0
   -6.3854    7.2416   13.7725 O   0  5  0  0  0  0
   -3.8512    6.0527   13.5009 C   0  0  0  0  0  0
   -2.5696    5.6071   13.1942 C   0  0  0  0  0  0
    1.4293    2.8291   11.8066 C   0  0  0  0  0  0
    4.4636    1.5156   13.5373 C   0  0  0  0  0  0
    4.7563    0.6731   14.5740 N   0  0  0  0  0  0
    5.8739    0.5468   15.3460 C   0  0  0  0  0  0
    5.5624   -0.4246   16.2902 C   0  0  0  0  0  0
    4.3559   -0.9375   16.1399 N   0  0  0  0  0  0
    3.8344   -0.2657   15.0709 C   0  0  0  0  0  0
   -0.5587   -0.5573   13.8612 C   0  0  0  0  0  0
   -1.9562   -0.7027   13.7830 C   0  0  0  0  0  0
   -2.7645    0.0831   12.9792 O   0  0  0  0  0  0
   -2.1678    1.0044   12.0737 C   0  0  0  0  0  0
   -5.7451   -2.4876   15.2618 H   0  0  0  0  0  0
   -4.4328   -3.6588   15.1876 H   0  0  0  0  0  0
   -4.4452   -2.3995   16.4448 H   0  0  0  0  0  0
   -2.2586   -3.2765   16.0004 H   0  0  0  0  0  0
    0.1379   -2.9860   16.1223 H   0  0  0  0  0  0
    1.9652   -1.8042   15.6413 H   0  0  0  0  0  0
    4.6862    2.4760   10.9300 H   0  0  0  0  0  0
    3.9492    3.9303    9.0960 H   0  0  0  0  0  0
    1.6112    4.6735    8.9538 H   0  0  0  0  0  0
   -0.4276    4.4214   12.6344 H   0  0  0  0  0  0
   -3.3024    3.8428   10.3730 H   0  0  0  0  0  0
   -5.5375    4.6584   10.8959 H   0  0  0  0  0  0
   -3.9998    6.6529   14.3883 H   0  0  0  0  0  0
   -1.7492    5.8759   13.8461 H   0  0  0  0  0  0
    0.7266    2.5063   12.5641 H   0  0  0  0  0  0
    5.2287    2.2212   13.2489 H   0  0  0  0  0  0
    6.7585    1.1462   15.1936 H   0  0  0  0  0  0
    6.2262   -0.7482   17.0811 H   0  0  0  0  0  0
   -0.0870    0.2046   13.2692 H   0  0  0  0  0  0
   -2.9477    1.4915   11.4878 H   0  0  0  0  0  0
   -1.6206    1.7835   12.6088 H   0  0  0  0  0  0
   -1.4915    0.5063   11.3741 H   0  0  0  0  0  0
  1  2  1  0  0  0
  1 39  1  0  0  0
  1 40  1  0  0  0
  1 41  1  0  0  0
  2  3  1  0  0  0
  3 36  1  0  0  0
  3  4  2  0  0  0
  4  5  1  0  0  0
  4 42  1  0  0  0
  5  6  2  0  0  0
  5 43  1  0  0  0
  6  7  1  0  0  0
  6 35  1  0  0  0
  7  8  1  0  0  0
  7 44  1  0  0  0
  8 34  1  0  0  0
  8  9  2  0  0  0
  9 10  1  0  0  0
 10 11  1  0  0  0
 10 29  2  0  0  0
 11 28  1  0  0  0
 11 12  2  0  0  0
 12 13  1  0  0  0
 12 45  1  0  0  0
 13 14  2  0  0  0
 13 46  1  0  0  0
 14 15  1  0  0  0
 14 47  1  0  0  0
 15 16  1  0  0  0
 15 28  2  0  0  0
 16 17  2  0  0  0
 16 18  1  0  0  0
 18 19  1  0  0  0
 18 48  1  0  0  0
 19 27  1  0  0  0
 19 20  2  0  0  0
 20 21  1  0  0  0
 20 49  1  0  0  0
 21 22  2  0  0  0
 21 50  1  0  0  0
 22 23  1  0  0  0
 22 26  1  0  0  0
 23 24  2  0  0  0
 23 25  1  0  0  0
 26 27  2  0  0  0
 26 51  1  0  0  0
 27 52  1  0  0  0
 28 53  1  0  0  0
 29 30  1  0  0  0
 29 54  1  0  0  0
 30 34  1  0  0  0
 30 31  1  0  0  0
 31 32  2  0  0  0
 31 55  1  0  0  0
 32 33  1  0  0  0
 32 56  1  0  0  0
 33 34  2  0  0  0
 35 36  2  0  0  0
 35 57  1  0  0  0
 36 37  1  0  0  0
 37 38  1  0  0  0
 38 58  1  0  0  0
 38 59  1  0  0  0
 38 60  1  0  0  0
M  CHG  1  25  -1
M  END
> <s_m_source_file>
/home/user-home/yujie/0_PBCNetv2/data/FEP/syk/inp_ligprep.csv

> <i_m_source_file_index>
42

> <i_lp_mmshare_version>
51139

> <i_f3d_flags>
0

> <s_epik_input>
W0NIM11PYzFbY0hdW2NIXWMoW2NIXWMxT1tDSDNdKVtOSF1jKGMobjIzKW5bY0hdW2NIXTMpbmMoW2NIXTIpLWM0W2NIXVtjSF1bY0hdYyhbY0hdNClDKD1PKVtOSF1jNVtjSF1bY0hdYyhDKD1PKVtPSF0pW2NIXVtjSF01

> <s_epik_cmdline>
J2VwaWtfcHl0aG9uJywgJy1waHQnLCAnMi4wJywgJy1waCcsICc3LjQnLCAnLXRuJywgJzgnLCAnLW1hJywgJzIwMCcsICctaW1hZScsICc8aW5maWxlLm1hZT4nLCAnLW9tYWUnLCAnPG91dGZpbGUubWFlPic=

> <r_lp_tautomer_probability>
1

> <r_epik_Ionization_Penalty>
  0.0011

> <r_epik_Ionization_Penalty_Charging>
  0.0011

> <r_epik_Ionization_Penalty_Neutral>
  0.0000

> <r_epik_State_Penalty>
  0.0005

> <r_epik_Charging_Adjusted_Penalty>
0.00167775

> <i_epik_Tot_Q>
-1

> <i_epik_Tot_abs_Q>
1

> <s_lp_Force_Field>
OPLS3e

> <r_lp_Energy>
66.6235

> <b_lp_Chiralities_Consistent>
1

> <s_lp_Variant>
lig_syk_CHEMBL3264995-1

> <s_i_glide_gridfile>
syk-001-gridgen

> <i_i_glide_lignum>
68

> <i_i_glide_rotatable_bonds>
9

> <r_i_docking_score>
-9.22593854131372

> <r_i_glide_ligand_efficiency>
-0.242787856350361

> <r_i_glide_ligand_efficiency_sa>
-0.816246801129631

> <r_i_glide_ligand_efficiency_ln>
-1.9893837491222

> <r_i_glide_gscore>
-9.22648766831372

> <r_i_glide_lipo>
-3.1304695274571

> <r_i_glide_hbond>
-0.419494680632423

> <r_i_glide_metal>
-0

> <r_i_glide_rewards>
-1.1898712496216

> <r_i_glide_evdw>
-53.7981033325195

> <r_i_glide_ecoul>
-15.1348447799683

> <r_i_glide_erotb>
0.475070759981997

> <r_i_glide_esite>
-0.00159108696337331

> <r_i_glide_emodel>
-110.547711203396

> <r_i_glide_energy>
-68.9329481124878

> <r_i_glide_einternal>
8.23336505889893

> <i_i_glide_confnum>
75

> <i_i_glide_posenum>
191

> <r_i_glide_eff_state_penalty>
0.000549127

$$$$
