lig_syk_CHEMBL3265010
                    3D
 Schrodinger Suite 2020-3.
 52 55  0  0  1  0            999 V2000
   -4.3358   -3.8764   15.6274 C   0  0  0  0  0  0
   -3.8019   -2.7098   15.0064 O   0  0  0  0  0  0
   -2.4449   -2.4591   15.1018 C   0  0  0  0  0  0
   -1.5222   -3.3324   15.7036 C   0  0  0  0  0  0
   -0.1699   -2.9974   15.7757 C   0  0  0  0  0  0
    0.3047   -1.7918   15.2542 C   0  0  0  0  0  0
    1.6808   -1.5012   15.3766 N   0  0  0  0  0  0
    2.5055   -0.5014   14.8199 C   0  0  0  0  0  0
    1.9770    0.3444   13.9030 N   0  0  0  0  0  0
    2.6833    1.3744   13.3760 C   0  0  0  0  0  0
    1.8959    2.3366   12.5343 C   0  0  0  0  0  0
    0.5672    2.0569   12.1752 C   0  0  0  0  0  0
   -0.1686    2.9248   11.3750 C   0  0  0  0  0  0
    0.3884    4.1260   10.9119 C   0  0  0  0  0  0
   -0.3046    5.0149   10.1062 O   0  0  0  0  0  0
   -1.5693    4.6464    9.5693 C   0  0  0  0  0  0
    1.6988    4.4508   11.3034 C   0  0  0  0  0  0
    2.3228    5.7508   10.8763 C   0  0  0  0  0  0
    2.6295    6.5929   11.8635 N   0  0  0  0  0  0
    2.5132    6.0206    9.6914 O   0  0  0  0  0  0
    2.4332    3.5604   12.1041 C   0  0  0  0  0  0
    4.0397    1.5197   13.6763 C   0  0  0  0  0  0
    4.5893    0.6777   14.6057 N   0  0  0  0  0  0
    5.8302    0.6473   15.1834 C   0  0  0  0  0  0
    5.7605   -0.3486   16.1516 C   0  0  0  0  0  0
    4.6042   -0.9831   16.1752 N   0  0  0  0  0  0
    3.8474   -0.3476   15.2359 C   0  0  0  0  0  0
   -0.6209   -0.9225   14.6694 C   0  0  0  0  0  0
   -1.9727   -1.2517   14.5751 C   0  0  0  0  0  0
   -2.8326   -0.3478   13.9994 O   0  0  0  0  0  0
   -2.8256   -0.4067   12.5844 C   0  0  0  0  0  0
   -5.4158   -3.8961   15.4891 H   0  0  0  0  0  0
   -3.9332   -4.7896   15.1854 H   0  0  0  0  0  0
   -4.1449   -3.8840   16.7010 H   0  0  0  0  0  0
   -1.8313   -4.2712   16.1390 H   0  0  0  0  0  0
    0.5107   -3.6792   16.2654 H   0  0  0  0  0  0
    2.1755   -2.1283   15.9980 H   0  0  0  0  0  0
    0.0920    1.1387   12.4776 H   0  0  0  0  0  0
   -1.1777    2.6405   11.1221 H   0  0  0  0  0  0
   -1.9112    5.4273    8.8928 H   0  0  0  0  0  0
   -1.5114    3.7183    8.9970 H   0  0  0  0  0  0
   -2.3196    4.5381   10.3527 H   0  0  0  0  0  0
    2.3797    6.3843   12.8182 H   0  0  0  0  0  0
    3.0300    7.5005   11.6489 H   0  0  0  0  0  0
    3.4382    3.8327   12.3882 H   0  0  0  0  0  0
    4.6793    2.3020   13.2997 H   0  0  0  0  0  0
    6.6215    1.3296   14.9145 H   0  0  0  0  0  0
    6.5629   -0.6236   16.8206 H   0  0  0  0  0  0
   -0.3406    0.0465   14.3034 H   0  0  0  0  0  0
   -3.3979    0.4261   12.1754 H   0  0  0  0  0  0
   -1.8204   -0.3469   12.1631 H   0  0  0  0  0  0
   -3.2858   -1.3425   12.2652 H   0  0  0  0  0  0
  1  2  1  0  0  0
  1 32  1  0  0  0
  1 33  1  0  0  0
  1 34  1  0  0  0
  2  3  1  0  0  0
  3 29  1  0  0  0
  3  4  2  0  0  0
  4  5  1  0  0  0
  4 35  1  0  0  0
  5  6  2  0  0  0
  5 36  1  0  0  0
  6  7  1  0  0  0
  6 28  1  0  0  0
  7  8  1  0  0  0
  7 37  1  0  0  0
  8 27  1  0  0  0
  8  9  2  0  0  0
  9 10  1  0  0  0
 10 11  1  0  0  0
 10 22  2  0  0  0
 11 21  1  0  0  0
 11 12  2  0  0  0
 12 13  1  0  0  0
 12 38  1  0  0  0
 13 14  2  0  0  0
 13 39  1  0  0  0
 14 15  1  0  0  0
 14 17  1  0  0  0
 15 16  1  0  0  0
 16 40  1  0  0  0
 16 41  1  0  0  0
 16 42  1  0  0  0
 17 18  1  0  0  0
 17 21  2  0  0  0
 18 19  1  0  0  0
 18 20  2  0  0  0
 19 43  1  0  0  0
 19 44  1  0  0  0
 21 45  1  0  0  0
 22 23  1  0  0  0
 22 46  1  0  0  0
 23 27  1  0  0  0
 23 24  1  0  0  0
 24 25  2  0  0  0
 24 47  1  0  0  0
 25 26  1  0  0  0
 25 48  1  0  0  0
 26 27  2  0  0  0
 28 29  2  0  0  0
 28 49  1  0  0  0
 29 30  1  0  0  0
 30 31  1  0  0  0
 31 50  1  0  0  0
 31 51  1  0  0  0
 31 52  1  0  0  0
M  END
> <s_m_source_file>
/home/user-home/yujie/0_PBCNetv2/data/FEP/syk/inp_ligprep.csv

> <i_m_source_file_index>
16

> <i_lp_mmshare_version>
51139

> <i_f3d_flags>
0

> <s_epik_input>
W0NIM11PYzFbY0hdW2NIXWMoW2NIXWMxT1tDSDNdKVtOSF1jKGMobjIzKW5bY0hdW2NIXTMpbmMoW2NIXTIpLWM0W2NIXVtjSF1jKE9bQ0gzXSljKFtjSF00KUMoPU8pW05IMl0=

> <s_epik_cmdline>
J2VwaWtfcHl0aG9uJywgJy1waHQnLCAnMi4wJywgJy1waCcsICc3LjQnLCAnLXRuJywgJzgnLCAnLW1hJywgJzIwMCcsICctaW1hZScsICc8aW5maWxlLm1hZT4nLCAnLW9tYWUnLCAnPG91dGZpbGUubWFlPic=

> <r_lp_tautomer_probability>
1

> <r_epik_Ionization_Penalty>
  0.0014

> <r_epik_Ionization_Penalty_Charging>
  0.0014

> <r_epik_Ionization_Penalty_Neutral>
  0.0000

> <r_epik_State_Penalty>
  0.0009

> <r_epik_Charging_Adjusted_Penalty>
0.00227679

> <i_epik_Tot_Q>
0

> <i_epik_Tot_abs_Q>
0

> <s_lp_Force_Field>
OPLS3e

> <r_lp_Energy>
46.5119

> <b_lp_Chiralities_Consistent>
1

> <s_lp_Variant>
lig_syk_CHEMBL3265010-1

> <s_i_glide_gridfile>
syk-001-gridgen

> <i_i_glide_lignum>
30

> <i_i_glide_rotatable_bonds>
7

> <r_i_docking_score>
-7.89057399647761

> <r_i_glide_ligand_efficiency>
-0.254534645047665

> <r_i_glide_ligand_efficiency_sa>
-0.799590208400784

> <r_i_glide_ligand_efficiency_ln>
-1.77956625325756

> <r_i_glide_gscore>
-7.89148396247761

> <r_i_glide_lipo>
-2.22049521491406

> <r_i_glide_hbond>
-0.422979535654751

> <r_i_glide_metal>
-0

> <r_i_glide_rewards>
-1.8228938485179

> <r_i_glide_evdw>
-42.4064788818359

> <r_i_glide_ecoul>
-10.2835359573364

> <r_i_glide_erotb>
0.337360907242203

> <r_i_glide_esite>
-0.0996219329408465

> <r_i_glide_emodel>
-75.4206449614533

> <r_i_glide_energy>
-52.6900148391724

> <r_i_glide_einternal>
7.53941679000854

> <i_i_glide_confnum>
2

> <i_i_glide_posenum>
165

> <r_i_glide_eff_state_penalty>
0.000909966

$$$$
