lig_syk_CHEMBL3265019
                    3D
 Schrodinger Suite 2020-3.
 45 49  0  0  1  0            999 V2000
   -4.2603   -2.9846   13.2352 C   0  0  0  0  0  0
   -3.9693   -2.2038   14.3885 O   0  0  0  0  0  0
   -2.6300   -1.9406   14.5508 C   0  0  0  0  0  0
   -1.8618   -2.7666   15.3750 C   0  0  0  0  0  0
   -0.4985   -2.5239   15.5414 C   0  0  0  0  0  0
    0.1196   -1.4539   14.8913 C   0  0  0  0  0  0
    1.4975   -1.2591   15.1220 N   0  0  0  0  0  0
    2.4682   -0.3885   14.5805 C   0  0  0  0  0  0
    2.1313    0.4385   13.5567 N   0  0  0  0  0  0
    3.0130    1.3421   13.0546 C   0  0  0  0  0  0
    2.4890    2.2518   11.9880 C   0  0  0  0  0  0
    3.3338    2.7509   10.9824 C   0  0  0  0  0  0
    2.8589    3.5351    9.9282 C   0  0  0  0  0  0
    1.4852    3.8097    9.8832 C   0  0  0  0  0  0
    0.7405    4.4907    8.9753 N   0  0  0  0  0  0
   -0.5657    4.4378    9.4194 N   0  0  0  0  0  0
   -0.6407    3.7356   10.6036 N   0  5  0  0  0  0
    0.6270    3.3444   10.8955 C   0  0  0  0  0  0
    1.1244    2.5930   11.9639 C   0  0  0  0  0  0
    4.3152    1.4172   13.5443 C   0  0  0  0  0  0
    4.6643    0.5872   14.5752 N   0  0  0  0  0  0
    5.8225    0.4785   15.2934 C   0  0  0  0  0  0
    5.5476   -0.4658   16.2749 C   0  0  0  0  0  0
    4.3501   -1.0063   16.1754 N   0  0  0  0  0  0
    3.7681   -0.3466   15.1364 C   0  0  0  0  0  0
   -0.6646   -0.6212   14.0789 C   0  0  0  0  0  0
   -2.0398   -0.8487   13.9017 C   0  0  0  0  0  0
   -2.8601   -0.0536   13.1175 O   0  0  0  0  0  0
   -2.2746    0.9684   12.3089 C   0  0  0  0  0  0
   -5.3380   -3.1212   13.1521 H   0  0  0  0  0  0
   -3.8031   -3.9736   13.3028 H   0  0  0  0  0  0
   -3.9149   -2.5037   12.3174 H   0  0  0  0  0  0
   -2.3213   -3.5987   15.8880 H   0  0  0  0  0  0
    0.0753   -3.1736   16.1877 H   0  0  0  0  0  0
    1.8722   -1.8640   15.8403 H   0  0  0  0  0  0
    4.3863    2.5011   10.9901 H   0  0  0  0  0  0
    3.5220    3.8972    9.1586 H   0  0  0  0  0  0
    0.4514    2.2507   12.7345 H   0  0  0  0  0  0
    5.0548    2.1240   13.2044 H   0  0  0  0  0  0
    6.6951    1.0850   15.0991 H   0  0  0  0  0  0
    6.2302   -0.7496   17.0627 H   0  0  0  0  0  0
   -0.2217    0.2264   13.5927 H   0  0  0  0  0  0
   -3.0426    1.4171   11.6800 H   0  0  0  0  0  0
   -1.8447    1.7619   12.9198 H   0  0  0  0  0  0
   -1.5061    0.5683   11.6439 H   0  0  0  0  0  0
  1  2  1  0  0  0
  1 30  1  0  0  0
  1 31  1  0  0  0
  1 32  1  0  0  0
  2  3  1  0  0  0
  3 27  1  0  0  0
  3  4  2  0  0  0
  4  5  1  0  0  0
  4 33  1  0  0  0
  5  6  2  0  0  0
  5 34  1  0  0  0
  6  7  1  0  0  0
  6 26  1  0  0  0
  7  8  1  0  0  0
  7 35  1  0  0  0
  8 25  1  0  0  0
  8  9  2  0  0  0
  9 10  1  0  0  0
 10 11  1  0  0  0
 10 20  2  0  0  0
 11 19  1  0  0  0
 11 12  2  0  0  0
 12 13  1  0  0  0
 12 36  1  0  0  0
 13 14  2  0  0  0
 13 37  1  0  0  0
 14 18  1  0  0  0
 14 15  1  0  0  0
 15 16  2  0  0  0
 16 17  1  0  0  0
 17 18  1  0  0  0
 18 19  2  0  0  0
 19 38  1  0  0  0
 20 21  1  0  0  0
 20 39  1  0  0  0
 21 25  1  0  0  0
 21 22  1  0  0  0
 22 23  2  0  0  0
 22 40  1  0  0  0
 23 24  1  0  0  0
 23 41  1  0  0  0
 24 25  2  0  0  0
 26 27  2  0  0  0
 26 42  1  0  0  0
 27 28  1  0  0  0
 28 29  1  0  0  0
 29 43  1  0  0  0
 29 44  1  0  0  0
 29 45  1  0  0  0
M  CHG  1  17  -1
M  END
> <s_m_source_file>
/home/user-home/yujie/0_PBCNetv2/data/FEP/syk/inp_ligprep.csv

> <i_m_source_file_index>
10

> <i_lp_mmshare_version>
51139

> <i_f3d_flags>
0

> <s_epik_input>
W0NIM11PYzFbY0hdW2NIXWMoW2NIXWMxT1tDSDNdKVtOSF1jKGMobjIzKW5bY0hdW2NIXTMpbmMoW2NIXTIpLWMoW2NIXVtjSF00KVtjSF1jKGM0NSlbbkhdbm41

> <s_epik_cmdline>
J2VwaWtfcHl0aG9uJywgJy1waHQnLCAnMi4wJywgJy1waCcsICc3LjQnLCAnLXRuJywgJzgnLCAnLW1hJywgJzIwMCcsICctaW1hZScsICc8aW5maWxlLm1hZT4nLCAnLW9tYWUnLCAnPG91dGZpbGUubWFlPic=

> <r_lp_tautomer_probability>
1

> <r_epik_Ionization_Penalty>
  4.6914

> <r_epik_Ionization_Penalty_Charging>
  4.6914

> <r_epik_Ionization_Penalty_Neutral>
  0.0000

> <r_epik_State_Penalty>
  2.4422

> <r_epik_Charging_Adjusted_Penalty>
7.1336

> <i_epik_Tot_Q>
-1

> <i_epik_Tot_abs_Q>
1

> <s_lp_Force_Field>
OPLS3e

> <r_lp_Energy>
41.8966

> <b_lp_Chiralities_Consistent>
1

> <s_lp_Variant>
lig_syk_CHEMBL3265019-4

> <s_i_glide_gridfile>
syk-001-gridgen

> <i_i_glide_lignum>
20

> <i_i_glide_rotatable_bonds>
5

> <r_i_docking_score>
-5.65259271178455

> <r_i_glide_ligand_efficiency>
-0.194916990061536

> <r_i_glide_ligand_efficiency_sa>
-0.598846747505934

> <r_i_glide_ligand_efficiency_ln>
-1.29430039361498

> <r_i_glide_gscore>
-8.09481271178455

> <r_i_glide_lipo>
-2.62007515861392

> <r_i_glide_hbond>
-0.345484517607366

> <r_i_glide_metal>
-0

> <r_i_glide_rewards>
-2.1937308868401

> <r_i_glide_evdw>
-45.3347053527832

> <r_i_glide_ecoul>
-7.0658860206604

> <r_i_glide_erotb>
0.391096022015045

> <r_i_glide_esite>
0

> <r_i_glide_emodel>
-78.0358004098341

> <r_i_glide_energy>
-52.4005913734436

> <r_i_glide_einternal>
6.90705251693726

> <i_i_glide_confnum>
8

> <i_i_glide_posenum>
55

> <r_i_glide_eff_state_penalty>
2.44222

$$$$
