lig_syk_CHEMBL3265034
                    3D
 Schrodinger Suite 2020-3.
 53 58  0  0  1  0            999 V2000
    5.7111   -0.4378   16.1911 C   0  0  0  0  0  0
    5.8834    0.5435   15.2243 C   0  0  0  0  0  0
    4.6836    0.6195   14.5759 N   0  0  0  0  0  0
    4.2491    1.4443   13.5763 C   0  0  0  0  0  0
    2.9291    1.3186   13.1508 C   0  0  0  0  0  0
    2.3258    2.2161   12.1226 C   0  0  0  0  0  0
    3.1150    2.7378   11.0881 C   0  0  0  0  0  0
    2.5898    3.5538   10.0881 C   0  0  0  0  0  0
    1.2247    3.8612   10.1205 C   0  0  0  0  0  0
    0.3267    4.6235    9.3299 C   0  0  0  0  0  0
   -0.8922    4.4957    9.9476 N   0  0  0  0  0  0
   -0.9052    3.7334   11.0522 N   0  0  0  0  0  0
    0.4021    3.3438   11.1694 C   0  0  0  0  0  0
    0.9597    2.5362   12.1695 C   0  0  0  0  0  0
    2.1092    0.3773   13.6867 N   0  0  0  0  0  0
    2.5376   -0.4423   14.6796 C   0  0  0  0  0  0
    1.6497   -1.3733   15.2458 N   0  0  0  0  0  0
    0.2832   -1.6520   15.0685 C   0  0  0  0  0  0
   -0.5796   -0.8919   14.2679 C   0  0  0  0  0  0
   -1.9283   -1.2190   14.1759 C   0  0  0  0  0  0
   -2.4341   -2.3108   14.8855 C   0  0  0  0  0  0
   -3.9190   -2.6545   14.7997 C   0  0  0  0  0  0
   -4.1795   -3.8826   13.9049 C   0  0  0  0  0  0
   -5.6777   -4.2352   13.8891 C   0  0  0  0  0  0
   -6.1493   -4.4158   15.2225 O   0  0  0  0  0  0
   -6.0629   -3.2443   16.0332 C   0  0  0  0  0  0
   -4.5916   -2.8198   16.1840 C   0  0  0  0  0  0
   -1.5702   -3.0868   15.6623 C   0  0  0  0  0  0
   -0.2258   -2.7504   15.7612 C   0  0  0  0  0  0
    3.8567   -0.3475   15.1745 C   0  0  0  0  0  0
    4.5171   -0.9968   16.1753 N   0  0  0  0  0  0
   -1.7345    4.9456    9.6183 H   0  0  0  0  0  0
    6.4595   -0.7472   16.9038 H   0  0  0  0  0  0
    6.7250    1.1744   14.9760 H   0  0  0  0  0  0
    4.9497    2.1781   13.2091 H   0  0  0  0  0  0
    4.1647    2.4889   11.0384 H   0  0  0  0  0  0
    3.2255    3.9331    9.3010 H   0  0  0  0  0  0
    0.4324    5.2228    8.4378 H   0  0  0  0  0  0
    0.3342    2.1570   12.9617 H   0  0  0  0  0  0
    2.0945   -1.9885   15.9136 H   0  0  0  0  0  0
   -0.2458   -0.0344   13.7132 H   0  0  0  0  0  0
   -2.5694   -0.6163   13.5525 H   0  0  0  0  0  0
   -4.3935   -1.7942   14.3227 H   0  0  0  0  0  0
   -3.8626   -3.6733   12.8822 H   0  0  0  0  0  0
   -3.6195   -4.7456   14.2700 H   0  0  0  0  0  0
   -6.2586   -3.4604   13.3835 H   0  0  0  0  0  0
   -5.8406   -5.1565   13.3311 H   0  0  0  0  0  0
   -6.6629   -2.4407   15.6023 H   0  0  0  0  0  0
   -6.4920   -3.4607   17.0121 H   0  0  0  0  0  0
   -4.0840   -3.5776   16.7829 H   0  0  0  0  0  0
   -4.5607   -1.8797   16.7377 H   0  0  0  0  0  0
   -1.9372   -3.9481   16.2020 H   0  0  0  0  0  0
    0.4154   -3.3521   16.3899 H   0  0  0  0  0  0
  1 31  1  0  0  0
  1  2  2  0  0  0
  1 33  1  0  0  0
  2  3  1  0  0  0
  2 34  1  0  0  0
  3 30  1  0  0  0
  3  4  1  0  0  0
  4  5  2  0  0  0
  4 35  1  0  0  0
  5 15  1  0  0  0
  5  6  1  0  0  0
  6 14  2  0  0  0
  6  7  1  0  0  0
  7 36  1  0  0  0
  7  8  2  0  0  0
  8 37  1  0  0  0
  8  9  1  0  0  0
  9 13  1  0  0  0
  9 10  2  0  0  0
 10 11  1  0  0  0
 10 38  1  0  0  0
 11 32  1  0  0  0
 11 12  1  0  0  0
 12 13  2  0  0  0
 13 14  1  0  0  0
 14 39  1  0  0  0
 15 16  2  0  0  0
 16 17  1  0  0  0
 16 30  1  0  0  0
 17 18  1  0  0  0
 17 40  1  0  0  0
 18 29  1  0  0  0
 18 19  2  0  0  0
 19 20  1  0  0  0
 19 41  1  0  0  0
 20 21  2  0  0  0
 20 42  1  0  0  0
 21 22  1  0  0  0
 21 28  1  0  0  0
 22 27  1  0  0  0
 22 23  1  0  0  0
 22 43  1  0  0  0
 23 24  1  0  0  0
 23 44  1  0  0  0
 23 45  1  0  0  0
 24 25  1  0  0  0
 24 46  1  0  0  0
 24 47  1  0  0  0
 25 26  1  0  0  0
 26 27  1  0  0  0
 26 48  1  0  0  0
 26 49  1  0  0  0
 27 50  1  0  0  0
 27 51  1  0  0  0
 28 29  2  0  0  0
 28 52  1  0  0  0
 29 53  1  0  0  0
 30 31  2  0  0  0
M  END
> <s_m_source_file>
/home/user-home/yujie/0_PBCNetv2/data/FEP/syk/inp_ligprep.csv

> <i_m_source_file_index>
27

> <i_lp_mmshare_version>
51139

> <i_f3d_flags>
0

> <s_epik_input>
W2NIXTFuW25IXWMoYzEyKVtjSF1jKFtjSF1bY0hdMiktYyhbY0hdMyluYyhjKG4zNCluW2NIXVtjSF00KVtOSF1jNVtjSF1bY0hdYyhbY0hdW2NIXTUpW0NIXTZbQ0gyXVtDSDJdT1tDSDJdW0NIMl02

> <s_epik_cmdline>
J2VwaWtfcHl0aG9uJywgJy1waHQnLCAnMi4wJywgJy1waCcsICc3LjQnLCAnLXRuJywgJzgnLCAnLW1hJywgJzIwMCcsICctaW1hZScsICc8aW5maWxlLm1hZT4nLCAnLW9tYWUnLCAnPG91dGZpbGUubWFlPic=

> <r_lp_tautomer_probability>
0.0196078

> <r_epik_Ionization_Penalty>
  0.0009

> <r_epik_Ionization_Penalty_Charging>
  0.0009

> <r_epik_Ionization_Penalty_Neutral>
  0.0000

> <r_epik_State_Penalty>
  2.4823

> <r_epik_Charging_Adjusted_Penalty>
2.48319

> <i_epik_Tot_Q>
0

> <i_epik_Tot_abs_Q>
0

> <s_lp_Force_Field>
OPLS3e

> <r_lp_Energy>
40.9233

> <b_lp_Chiralities_Consistent>
1

> <s_lp_Variant>
lig_syk_CHEMBL3265034-2

> <s_i_glide_gridfile>
syk-001-gridgen

> <i_i_glide_lignum>
44

> <i_i_glide_rotatable_bonds>
4

> <r_i_docking_score>
-4.69909303537416

> <r_i_glide_ligand_efficiency>
-0.151583646302392

> <r_i_glide_ligand_efficiency_sa>
-0.476181933168208

> <r_i_glide_ligand_efficiency_ln>
-1.05978948938347

> <r_i_glide_gscore>
-7.18143303537416

> <r_i_glide_lipo>
-2.58891317544082

> <r_i_glide_hbond>
-0.190117123445358

> <r_i_glide_metal>
-0

> <r_i_glide_rewards>
-2.0242486519989

> <r_i_glide_evdw>
-46.388744354248

> <r_i_glide_ecoul>
-3.50948166847229

> <r_i_glide_erotb>
0.467705383494159

> <r_i_glide_esite>
0

> <r_i_glide_emodel>
-72.2939033232088

> <r_i_glide_energy>
-49.8982260227203

> <r_i_glide_einternal>
0.909894227981567

> <i_i_glide_confnum>
30

> <i_i_glide_posenum>
251

> <r_i_glide_eff_state_penalty>
2.48234

$$$$
