lig_syk_CHEMBL3265024
                    3D
 Schrodinger Suite 2020-3.
 50 54  0  0  1  0            999 V2000
   -4.7062   -2.9672   15.2719 C   0  0  0  0  0  0
   -4.0418   -1.9478   14.5316 O   0  0  0  0  0  0
   -2.6645   -1.8329   14.6261 C   0  0  0  0  0  0
   -1.8602   -2.7064   15.3794 C   0  0  0  0  0  0
   -0.4847   -2.5045   15.4725 C   0  0  0  0  0  0
    0.1269   -1.4385   14.8177 C   0  0  0  0  0  0
    1.5072   -1.2640   15.0309 N   0  0  0  0  0  0
    2.4789   -0.3714   14.5388 C   0  0  0  0  0  0
    2.1684    0.4830   13.5274 N   0  0  0  0  0  0
    3.0773    1.3850   13.0686 C   0  0  0  0  0  0
    2.6019    2.3278   12.0150 C   0  0  0  0  0  0
    3.4707    2.7944   11.0112 C   0  0  0  0  0  0
    3.0152    3.6349    9.9922 C   0  0  0  0  0  0
    1.6731    3.9992    9.9673 C   0  0  0  0  0  0
    0.7974    3.5704   10.9618 C   0  0  0  0  0  0
    1.2634    2.7535   11.9891 C   0  0  0  0  0  0
   -0.5407    3.9399   10.8708 N   0  0  0  0  0  0
   -1.1579    4.4052    9.7678 C   0  0  0  0  0  0
   -2.3611    4.6473    9.7224 O   0  0  0  0  0  0
   -0.1718    4.5981    8.5759 C   0  0  0  0  0  0
    1.2041    4.8324    8.9752 O   0  0  0  0  0  0
    4.3674    1.4370   13.5933 C   0  0  0  0  0  0
    4.6809    0.5874   14.6168 N   0  0  0  0  0  0
    5.8134    0.4525   15.3716 C   0  0  0  0  0  0
    5.5100   -0.5264   16.3104 C   0  0  0  0  0  0
    4.3043   -1.0401   16.1754 N   0  0  0  0  0  0
    3.7608   -0.3477   15.1343 C   0  0  0  0  0  0
   -0.6684   -0.5871   14.0380 C   0  0  0  0  0  0
   -2.0579   -0.7726   13.9336 C   0  0  0  0  0  0
   -2.8879    0.0582   13.1965 O   0  0  0  0  0  0
   -2.3127    1.0693   12.3727 C   0  0  0  0  0  0
   -5.7790   -2.8967   15.0998 H   0  0  0  0  0  0
   -4.5347   -2.8580   16.3441 H   0  0  0  0  0  0
   -4.3856   -3.9617   14.9568 H   0  0  0  0  0  0
   -2.2822   -3.5369   15.9231 H   0  0  0  0  0  0
    0.1008   -3.1768   16.0860 H   0  0  0  0  0  0
    1.8766   -1.8885   15.7349 H   0  0  0  0  0  0
    4.5071    2.4883   11.0036 H   0  0  0  0  0  0
    3.6896    3.9876    9.2267 H   0  0  0  0  0  0
    0.5798    2.4258   12.7560 H   0  0  0  0  0  0
   -1.1585    3.7704   11.6478 H   0  0  0  0  0  0
   -0.5388    5.4039    7.9420 H   0  0  0  0  0  0
   -0.2115    3.6662    8.0096 H   0  0  0  0  0  0
    5.1227    2.1454   13.2918 H   0  0  0  0  0  0
    6.6975    1.0536   15.2106 H   0  0  0  0  0  0
    6.1775   -0.8536   17.0930 H   0  0  0  0  0  0
   -0.2189    0.2458   13.5322 H   0  0  0  0  0  0
   -3.0987    1.5650   11.8053 H   0  0  0  0  0  0
   -1.8075    1.8286   12.9709 H   0  0  0  0  0  0
   -1.6077    0.6492   11.6535 H   0  0  0  0  0  0
  1  2  1  0  0  0
  1 32  1  0  0  0
  1 33  1  0  0  0
  1 34  1  0  0  0
  2  3  1  0  0  0
  3 29  1  0  0  0
  3  4  2  0  0  0
  4  5  1  0  0  0
  4 35  1  0  0  0
  5  6  2  0  0  0
  5 36  1  0  0  0
  6  7  1  0  0  0
  6 28  1  0  0  0
  7  8  1  0  0  0
  7 37  1  0  0  0
  8 27  1  0  0  0
  8  9  2  0  0  0
  9 10  1  0  0  0
 10 11  1  0  0  0
 10 22  2  0  0  0
 11 16  1  0  0  0
 11 12  2  0  0  0
 12 13  1  0  0  0
 12 38  1  0  0  0
 13 14  2  0  0  0
 13 39  1  0  0  0
 14 21  1  0  0  0
 14 15  1  0  0  0
 15 16  2  0  0  0
 15 17  1  0  0  0
 16 40  1  0  0  0
 17 18  1  0  0  0
 17 41  1  0  0  0
 18 19  2  0  0  0
 18 20  1  0  0  0
 20 21  1  0  0  0
 20 42  1  0  0  0
 20 43  1  0  0  0
 22 23  1  0  0  0
 22 44  1  0  0  0
 23 27  1  0  0  0
 23 24  1  0  0  0
 24 25  2  0  0  0
 24 45  1  0  0  0
 25 26  1  0  0  0
 25 46  1  0  0  0
 26 27  2  0  0  0
 28 29  2  0  0  0
 28 47  1  0  0  0
 29 30  1  0  0  0
 30 31  1  0  0  0
 31 48  1  0  0  0
 31 49  1  0  0  0
 31 50  1  0  0  0
M  END
> <s_m_source_file>
/home/user-home/yujie/0_PBCNetv2/data/FEP/syk/inp_ligprep.csv

> <i_m_source_file_index>
36

> <i_lp_mmshare_version>
51139

> <i_f3d_flags>
0

> <s_epik_input>
W0NIM11PYzFbY0hdW2NIXWMoW2NIXWMxT1tDSDNdKVtOSF1jKGMobjIzKW5bY0hdW2NIXTMpbmMoW2NIXTIpLWMoW2NIXVtjSF00KVtjSF1jKGM0NSlbTkhdQyg9TylbQ0gyXU81

> <s_epik_cmdline>
J2VwaWtfcHl0aG9uJywgJy1waHQnLCAnMi4wJywgJy1waCcsICc3LjQnLCAnLXRuJywgJzgnLCAnLW1hJywgJzIwMCcsICctaW1hZScsICc8aW5maWxlLm1hZT4nLCAnLW9tYWUnLCAnPG91dGZpbGUubWFlPic=

> <r_lp_tautomer_probability>
1

> <r_epik_Ionization_Penalty>
  0.0014

> <r_epik_Ionization_Penalty_Charging>
  0.0014

> <r_epik_Ionization_Penalty_Neutral>
  0.0000

> <r_epik_State_Penalty>
  0.0009

> <r_epik_Charging_Adjusted_Penalty>
0.00227679

> <i_epik_Tot_Q>
0

> <i_epik_Tot_abs_Q>
0

> <s_lp_Force_Field>
OPLS3e

> <r_lp_Energy>
50.6456

> <b_lp_Chiralities_Consistent>
1

> <s_lp_Variant>
lig_syk_CHEMBL3265024-1

> <s_i_glide_gridfile>
syk-001-gridgen

> <i_i_glide_lignum>
55

> <i_i_glide_rotatable_bonds>
5

> <r_i_docking_score>
-8.06237227891385

> <r_i_glide_ligand_efficiency>
-0.260076525126253

> <r_i_glide_ligand_efficiency_sa>
-0.816999363237607

> <r_i_glide_ligand_efficiency_ln>
-1.81831203093199

> <r_i_glide_gscore>
-8.06328224491385

> <r_i_glide_lipo>
-2.68026313367621

> <r_i_glide_hbond>
-0.372437761084243

> <r_i_glide_metal>
-0

> <r_i_glide_rewards>
-2.02182099628429

> <r_i_glide_evdw>
-47.0204391479492

> <r_i_glide_ecoul>
-6.52032852172852

> <r_i_glide_erotb>
0.340310881787634

> <r_i_glide_esite>
0

> <r_i_glide_emodel>
-79.3797972189338

> <r_i_glide_energy>
-53.5407676696777

> <r_i_glide_einternal>
0.909717619419098

> <i_i_glide_confnum>
9

> <i_i_glide_posenum>
281

> <r_i_glide_eff_state_penalty>
0.000909966

$$$$
