lig_syk_CHEMBL3264997
                    3D
 Schrodinger Suite 2024-1.
 60 64  0  0  1  0            999 V2000
   -4.6422   -2.8238   15.9308 C   0  0  0  0  0  0
   -4.0503   -1.9194   15.0073 O   0  0  0  0  0  0
   -2.6706   -1.8477   14.9826 C   0  0  0  0  0  0
   -1.8215   -2.7255   15.6991 C   0  0  0  0  0  0
   -0.4274   -2.5467   15.6793 C   0  0  0  0  0  0
    0.1598   -1.4996   14.9433 C   0  0  0  0  0  0
    1.5555   -1.3689   15.0392 N   0  0  0  0  0  0
    2.4670   -0.4142   14.5583 C   0  0  0  0  0  0
    2.1564    0.3859   13.5752 N   0  0  0  0  0  0
    3.0768    1.3101   13.1349 C   0  0  0  0  0  0
    4.3328    1.4234   13.6735 C   0  0  0  0  0  0
    4.6420    0.6021   14.7028 N   0  0  0  0  0  0
    5.7801    0.5207   15.4775 C   0  0  0  0  0  0
    5.5230   -0.4170   16.4381 C   0  0  0  0  0  0
    4.2729   -0.9976   16.2505 N   0  0  0  0  0  0
    3.7368   -0.3592   15.2050 C   0  0  0  0  0  0
    2.6601    2.1809   12.0125 C   0  0  0  0  0  0
    3.5950    2.5479   11.0155 C   0  0  0  0  0  0
    3.2108    3.3222    9.9048 C   0  0  0  0  0  0
    1.8750    3.7369    9.7704 C   0  0  0  0  0  0
    0.9252    3.4036   10.7578 C   0  0  0  0  0  0
    1.3282    2.6432   11.8827 C   0  0  0  0  0  0
   -0.5156    3.7583   10.5390 C   0  0  0  0  0  0
   -1.0138    3.6379    9.4204 O   0  0  0  0  0  0
   -1.1463    4.2738   11.6038 N   0  0  0  0  0  0
   -2.5148    4.6322   11.6806 C   0  0  0  0  0  0
   -2.8649    5.8236   12.3486 C   0  0  0  0  0  0
   -4.2195    6.1846   12.4841 C   0  0  0  0  0  0
   -5.2288    5.3277   12.0010 C   0  0  0  0  0  0
   -4.8915    4.1036   11.3851 C   0  0  0  0  0  0
   -3.5326    3.7842   11.1876 C   0  0  0  0  0  0
   -5.9621    3.1013   11.0611 C   0  0  0  0  0  0
   -7.1419    3.4820   10.9368 O   0  0  0  0  0  0
   -5.6717    1.8846   11.1534 O   0  5  0  0  0  0
   -0.6844   -0.6507   14.1920 C   0  0  0  0  0  0
   -2.0933   -0.8219   14.2041 C   0  0  0  0  0  0
   -2.9616   -0.0026   13.5142 O   0  0  0  0  0  0
   -2.4246    0.7322   12.4240 C   0  0  0  0  0  0
   -5.7258   -2.7147   15.9009 H   0  0  0  0  0  0
   -4.4088   -3.8594   15.6798 H   0  0  0  0  0  0
   -4.3196   -2.6197   16.9533 H   0  0  0  0  0  0
   -2.2097   -3.5307   16.3036 H   0  0  0  0  0  0
    0.1873   -3.2152   16.2660 H   0  0  0  0  0  0
    1.9900   -1.9613   15.7412 H   0  0  0  0  0  0
    5.0736    2.1487   13.3698 H   0  0  0  0  0  0
    6.6359    1.1511   15.2986 H   0  0  0  0  0  0
    6.1454   -0.7099   17.2679 H   0  0  0  0  0  0
    4.6084    2.1813   11.0742 H   0  0  0  0  0  0
    3.9233    3.5542    9.1297 H   0  0  0  0  0  0
    1.5607    4.2853    8.8927 H   0  0  0  0  0  0
    0.5985    2.3459   12.6231 H   0  0  0  0  0  0
   -0.5771    4.4843   12.4081 H   0  0  0  0  0  0
   -2.1010    6.4720   12.7512 H   0  0  0  0  0  0
   -4.4878    7.1027   12.9845 H   0  0  0  0  0  0
   -6.2723    5.5718   12.1444 H   0  0  0  0  0  0
   -3.2914    2.8614   10.6826 H   0  0  0  0  0  0
   -0.2592    0.1572   13.6254 H   0  0  0  0  0  0
   -3.2436    1.0134   11.7682 H   0  0  0  0  0  0
   -1.9301    1.6404   12.7687 H   0  0  0  0  0  0
   -1.7272    0.1475   11.8220 H   0  0  0  0  0  0
  1  2  1  0  0  0
  1 39  1  0  0  0
  1 40  1  0  0  0
  1 41  1  0  0  0
  2  3  1  0  0  0
  3 36  1  0  0  0
  3  4  2  0  0  0
  4  5  1  0  0  0
  4 42  1  0  0  0
  5  6  2  0  0  0
  5 43  1  0  0  0
  6  7  1  0  0  0
  6 35  1  0  0  0
  7  8  1  0  0  0
  7 44  1  0  0  0
  8 16  1  0  0  0
  8  9  2  0  0  0
  9 10  1  0  0  0
 10 11  2  0  0  0
 10 17  1  0  0  0
 11 12  1  0  0  0
 11 45  1  0  0  0
 12 16  1  0  0  0
 12 13  1  0  0  0
 13 14  2  0  0  0
 13 46  1  0  0  0
 14 15  1  0  0  0
 14 47  1  0  0  0
 15 16  2  0  0  0
 17 22  1  0  0  0
 17 18  2  0  0  0
 18 19  1  0  0  0
 18 48  1  0  0  0
 19 20  2  0  0  0
 19 49  1  0  0  0
 20 21  1  0  0  0
 20 50  1  0  0  0
 21 22  2  0  0  0
 21 23  1  0  0  0
 22 51  1  0  0  0
 23 24  2  0  0  0
 23 25  1  0  0  0
 25 26  1  0  0  0
 25 52  1  0  0  0
 26 31  1  0  0  0
 26 27  2  0  0  0
 27 28  1  0  0  0
 27 53  1  0  0  0
 28 29  2  0  0  0
 28 54  1  0  0  0
 29 30  1  0  0  0
 29 55  1  0  0  0
 30 31  2  0  0  0
 30 32  1  0  0  0
 31 56  1  0  0  0
 32 33  2  0  0  0
 32 34  1  0  0  0
 35 36  2  0  0  0
 35 57  1  0  0  0
 36 37  1  0  0  0
 37 38  1  0  0  0
 38 58  1  0  0  0
 38 59  1  0  0  0
 38 60  1  0  0  0
M  CHG  1  34  -1
M  END
> <Tot Q>
-1

> <flags>
0

> <Source File Index>
3

> <subgroup collapsed>
0

> <Ionization Penalty>
0.0027

> <State Penalty>
0

> <docking score>
-8.84339

> <glide emodel>
-104.722

> <glide gscore>
-8.84339

> <tautomer probability>
1

> <Source File>
glide-dock_SP_17_pv.maegz

> <Source Path>
C:\Users\yujie\Documents\Schrodinger\glide-dock_SP_17

> <entry id>
54

> <job name>
glide-dock_SP_17

> <subgroup title>
glide-dock_SP_17_pv

> <subgroupid>
glide-dock_SP_17_pv

$$$$
