lig_syk_CHEMBL3265029
                    3D
 Schrodinger Suite 2020-3.
 43 47  0  0  1  0            999 V2000
   -4.7068   -2.7454   15.1714 C   0  0  0  0  0  0
   -3.9855   -1.8025   14.3852 O   0  0  0  0  0  0
   -2.6126   -1.7251   14.5291 C   0  0  0  0  0  0
   -1.8539   -2.5494   15.3749 C   0  0  0  0  0  0
   -0.4780   -2.3654   15.4799 C   0  0  0  0  0  0
    0.1635   -1.3660   14.7473 C   0  0  0  0  0  0
    1.5429   -1.2098   14.9665 N   0  0  0  0  0  0
    2.5341   -0.3484   14.4644 C   0  0  0  0  0  0
    2.2608    0.4962   13.4281 N   0  0  0  0  0  0
    3.2034    1.3727   12.9811 C   0  0  0  0  0  0
    2.8048    2.3237   11.8993 C   0  0  0  0  0  0
    3.7424    2.7102   10.9287 C   0  0  0  0  0  0
    3.4319    3.6075    9.9072 C   0  0  0  0  0  0
    2.1369    4.1358    9.8583 C   0  0  0  0  0  0
    1.4276    5.0545    9.0297 C   0  0  0  0  0  0
    0.1881    5.2004    9.4231 N   0  0  0  0  0  0
    0.0319    4.4211   10.5086 N   0  0  0  0  0  0
    1.1902    3.7416   10.8322 C   0  0  0  0  0  0
    1.5003    2.8459   11.8588 C   0  0  0  0  0  0
    4.4729    1.4144   13.5513 C   0  0  0  0  0  0
    4.7385    0.5786   14.5970 N   0  0  0  0  0  0
    5.8416    0.4519   15.3884 C   0  0  0  0  0  0
    5.5009   -0.5023   16.3404 C   0  0  0  0  0  0
    4.2964   -1.0110   16.1752 N   0  0  0  0  0  0
    3.7956   -0.3372   15.0982 C   0  0  0  0  0  0
   -0.5890   -0.5657   13.8793 C   0  0  0  0  0  0
   -1.9655   -0.7474   13.7752 C   0  0  0  0  0  0
   -0.8530    4.3971   10.9928 H   0  0  0  0  0  0
   -5.7709   -2.6612   14.9512 H   0  0  0  0  0  0
   -4.5762   -2.5599   16.2391 H   0  0  0  0  0  0
   -4.4030   -3.7690   14.9467 H   0  0  0  0  0  0
   -2.3111   -3.3223   15.9748 H   0  0  0  0  0  0
    0.0845   -2.9958   16.1573 H   0  0  0  0  0  0
    1.8965   -1.8092   15.7006 H   0  0  0  0  0  0
    4.7422    2.2990   10.9585 H   0  0  0  0  0  0
    4.1718    3.8908    9.1737 H   0  0  0  0  0  0
    1.8067    5.5953    8.1754 H   0  0  0  0  0  0
    0.7685    2.5697   12.6017 H   0  0  0  0  0  0
    5.2491    2.1097   13.2701 H   0  0  0  0  0  0
    6.7352    1.0414   15.2467 H   0  0  0  0  0  0
    6.1399   -0.8162   17.1538 H   0  0  0  0  0  0
   -0.1405    0.2150   13.2902 H   0  0  0  0  0  0
   -2.5339   -0.1188   13.1077 H   0  0  0  0  0  0
  1  2  1  0  0  0
  1 29  1  0  0  0
  1 30  1  0  0  0
  1 31  1  0  0  0
  2  3  1  0  0  0
  3 27  1  0  0  0
  3  4  2  0  0  0
  4  5  1  0  0  0
  4 32  1  0  0  0
  5  6  2  0  0  0
  5 33  1  0  0  0
  6  7  1  0  0  0
  6 26  1  0  0  0
  7  8  1  0  0  0
  7 34  1  0  0  0
  8 25  1  0  0  0
  8  9  2  0  0  0
  9 10  1  0  0  0
 10 11  1  0  0  0
 10 20  2  0  0  0
 11 19  1  0  0  0
 11 12  2  0  0  0
 12 13  1  0  0  0
 12 35  1  0  0  0
 13 14  2  0  0  0
 13 36  1  0  0  0
 14 18  1  0  0  0
 14 15  1  0  0  0
 15 16  2  0  0  0
 15 37  1  0  0  0
 16 17  1  0  0  0
 17 28  1  0  0  0
 17 18  1  0  0  0
 18 19  2  0  0  0
 19 38  1  0  0  0
 20 21  1  0  0  0
 20 39  1  0  0  0
 21 25  1  0  0  0
 21 22  1  0  0  0
 22 23  2  0  0  0
 22 40  1  0  0  0
 23 24  1  0  0  0
 23 41  1  0  0  0
 24 25  2  0  0  0
 26 27  2  0  0  0
 26 42  1  0  0  0
 27 43  1  0  0  0
M  END
> <s_m_source_file>
/home/user-home/yujie/0_PBCNetv2/data/FEP/syk/inp_ligprep.csv

> <i_m_source_file_index>
13

> <i_lp_mmshare_version>
51139

> <i_f3d_flags>
0

> <s_epik_input>
W0NIM11PYzFbY0hdW2NIXWMoW2NIXVtjSF0xKVtOSF1jKGMobjIzKW5bY0hdW2NIXTMpbmMoW2NIXTIpLWMoW2NIXVtjSF00KVtjSF1jKGM0NSlbbkhdbltjSF01

> <s_epik_cmdline>
J2VwaWtfcHl0aG9uJywgJy1waHQnLCAnMi4wJywgJy1waCcsICc3LjQnLCAnLXRuJywgJzgnLCAnLW1hJywgJzIwMCcsICctaW1hZScsICc8aW5maWxlLm1hZT4nLCAnLW9tYWUnLCAnPG91dGZpbGUubWFlPic=

> <r_lp_tautomer_probability>
0.980392

> <r_epik_Ionization_Penalty>
  0.0009

> <r_epik_Ionization_Penalty_Charging>
  0.0009

> <r_epik_Ionization_Penalty_Neutral>
  0.0000

> <r_epik_State_Penalty>
  0.0090

> <r_epik_Charging_Adjusted_Penalty>
0.00989682

> <i_epik_Tot_Q>
0

> <i_epik_Tot_abs_Q>
0

> <s_lp_Force_Field>
OPLS3e

> <r_lp_Energy>
40.4359

> <b_lp_Chiralities_Consistent>
1

> <s_lp_Variant>
lig_syk_CHEMBL3265029-1

> <s_i_glide_gridfile>
syk-001-gridgen

> <i_i_glide_lignum>
25

> <i_i_glide_rotatable_bonds>
4

> <r_i_docking_score>
-7.86082313797554

> <r_i_glide_ligand_efficiency>
-0.291141597702798

> <r_i_glide_ligand_efficiency_sa>
-0.873424792148839

> <r_i_glide_ligand_efficiency_ln>
-1.82987003072282

> <r_i_glide_gscore>
-7.86986839797554

> <r_i_glide_lipo>
-2.75358585532299

> <r_i_glide_hbond>
-0.20518208375191

> <r_i_glide_metal>
-0

> <r_i_glide_rewards>
-2.45877624587964

> <r_i_glide_evdw>
-42.5888214111328

> <r_i_glide_ecoul>
-5.16524648666382

> <r_i_glide_erotb>
0.451903830535205

> <r_i_glide_esite>
0

> <r_i_glide_emodel>
-70.1436560195521

> <r_i_glide_energy>
-47.7540678977966

> <r_i_glide_einternal>
1.40560400485992

> <i_i_glide_confnum>
4

> <i_i_glide_posenum>
354

> <r_i_glide_eff_state_penalty>
0.00904526

$$$$
