lig_syk_CHEMBL3265018
                    3D
 Schrodinger Suite 2020-3.
 47 51  0  0  1  0            999 V2000
   -4.7905   -2.8375   15.2601 C   0  0  0  0  0  0
   -4.1026   -1.8715   14.4714 O   0  0  0  0  0  0
   -2.7251   -1.7692   14.5769 C   0  0  0  0  0  0
   -1.9409   -2.6187   15.3754 C   0  0  0  0  0  0
   -0.5645   -2.4320   15.4731 C   0  0  0  0  0  0
    0.0673   -1.4020   14.7791 C   0  0  0  0  0  0
    1.4464   -1.2354   15.0009 N   0  0  0  0  0  0
    2.4282   -0.3555   14.5101 C   0  0  0  0  0  0
    2.1395    0.4941   13.4873 N   0  0  0  0  0  0
    3.0723    1.3710   13.0282 C   0  0  0  0  0  0
    2.6409    2.3100   11.9523 C   0  0  0  0  0  0
    3.5317    2.6512   10.9220 C   0  0  0  0  0  0
    3.1747    3.5087    9.8795 C   0  0  0  0  0  0
    1.8828    4.0461    9.8839 C   0  0  0  0  0  0
    1.2960    4.8984    8.9853 N   0  0  0  0  0  0
    0.0940    5.0947    9.4614 C   0  0  0  0  0  0
   -0.1559    4.4116   10.6276 N   0  0  0  0  0  0
    0.9894    3.7125   10.9321 C   0  0  0  0  0  0
    1.3440    2.8524   11.9724 C   0  0  0  0  0  0
    4.3548    1.4082   13.5696 C   0  0  0  0  0  0
    4.6409    0.5654   14.6060 N   0  0  0  0  0  0
    5.7617    0.4227   15.3752 C   0  0  0  0  0  0
    5.4317   -0.5448   16.3198 C   0  0  0  0  0  0
    4.2208   -1.0403   16.1749 N   0  0  0  0  0  0
    3.7014   -0.3478   15.1208 C   0  0  0  0  0  0
   -0.7061   -0.5785   13.9518 C   0  0  0  0  0  0
   -2.0977   -0.7508   13.8424 C   0  0  0  0  0  0
   -2.9082    0.0529   13.0567 O   0  0  0  0  0  0
   -2.3095    0.9963   12.1711 C   0  0  0  0  0  0
   -1.0267    4.4603   11.1348 H   0  0  0  0  0  0
   -5.8616   -2.7576   15.0761 H   0  0  0  0  0  0
   -4.6274   -2.6739   16.3261 H   0  0  0  0  0  0
   -4.4881   -3.8531   15.0030 H   0  0  0  0  0  0
   -2.3808   -3.4174   15.9538 H   0  0  0  0  0  0
    0.0057   -3.0845   16.1207 H   0  0  0  0  0  0
    1.8107   -1.8550   15.7127 H   0  0  0  0  0  0
    4.5242    2.2239   10.9143 H   0  0  0  0  0  0
    3.8702    3.7479    9.0898 H   0  0  0  0  0  0
   -0.6686    5.7276    9.0281 H   0  0  0  0  0  0
    0.6528    2.6145   12.7664 H   0  0  0  0  0  0
    5.1260    2.1002   13.2679 H   0  0  0  0  0  0
    6.6562    1.0076   15.2228 H   0  0  0  0  0  0
    6.0833   -0.8835   17.1120 H   0  0  0  0  0  0
   -0.2389    0.2231   13.4124 H   0  0  0  0  0  0
   -3.0858    1.4649   11.5659 H   0  0  0  0  0  0
   -1.7942    1.7878   12.7181 H   0  0  0  0  0  0
   -1.6077    0.5168   11.4849 H   0  0  0  0  0  0
  1  2  1  0  0  0
  1 31  1  0  0  0
  1 32  1  0  0  0
  1 33  1  0  0  0
  2  3  1  0  0  0
  3 27  1  0  0  0
  3  4  2  0  0  0
  4  5  1  0  0  0
  4 34  1  0  0  0
  5  6  2  0  0  0
  5 35  1  0  0  0
  6  7  1  0  0  0
  6 26  1  0  0  0
  7  8  1  0  0  0
  7 36  1  0  0  0
  8 25  1  0  0  0
  8  9  2  0  0  0
  9 10  1  0  0  0
 10 11  1  0  0  0
 10 20  2  0  0  0
 11 19  1  0  0  0
 11 12  2  0  0  0
 12 13  1  0  0  0
 12 37  1  0  0  0
 13 14  2  0  0  0
 13 38  1  0  0  0
 14 18  1  0  0  0
 14 15  1  0  0  0
 15 16  2  0  0  0
 16 17  1  0  0  0
 16 39  1  0  0  0
 17 30  1  0  0  0
 17 18  1  0  0  0
 18 19  2  0  0  0
 19 40  1  0  0  0
 20 21  1  0  0  0
 20 41  1  0  0  0
 21 25  1  0  0  0
 21 22  1  0  0  0
 22 23  2  0  0  0
 22 42  1  0  0  0
 23 24  1  0  0  0
 23 43  1  0  0  0
 24 25  2  0  0  0
 26 27  2  0  0  0
 26 44  1  0  0  0
 27 28  1  0  0  0
 28 29  1  0  0  0
 29 45  1  0  0  0
 29 46  1  0  0  0
 29 47  1  0  0  0
M  END
> <s_m_source_file>
/home/user-home/yujie/0_PBCNetv2/data/FEP/syk/inp_ligprep.csv

> <i_m_source_file_index>
7

> <i_lp_mmshare_version>
51139

> <i_f3d_flags>
0

> <s_epik_input>
W0NIM11PYzFbY0hdW2NIXWMoW2NIXWMxT1tDSDNdKVtOSF1jKGMobjIzKW5bY0hdW2NIXTMpbmMoW2NIXTIpLWMoW2NIXVtjSF00KVtjSF1jKGM0NSlbbkhdW2NIXW41

> <s_epik_cmdline>
J2VwaWtfcHl0aG9uJywgJy1waHQnLCAnMi4wJywgJy1waCcsICc3LjQnLCAnLXRuJywgJzgnLCAnLW1hJywgJzIwMCcsICctaW1hZScsICc8aW5maWxlLm1hZT4nLCAnLW9tYWUnLCAnPG91dGZpbGUubWFlPic=

> <r_lp_tautomer_probability>
1

> <r_epik_Ionization_Penalty>
  0.0193

> <r_epik_Ionization_Penalty_Charging>
  0.0009

> <r_epik_Ionization_Penalty_Neutral>
  0.0185

> <r_epik_State_Penalty>
  0.3946

> <r_epik_Charging_Adjusted_Penalty>
0.395489

> <i_epik_Tot_Q>
0

> <i_epik_Tot_abs_Q>
0

> <s_lp_Force_Field>
OPLS3e

> <r_lp_Energy>
44.2922

> <b_lp_Chiralities_Consistent>
1

> <s_lp_Variant>
lig_syk_CHEMBL3265018-1

> <s_i_glide_gridfile>
syk-001-gridgen

> <i_i_glide_lignum>
12

> <i_i_glide_rotatable_bonds>
5

> <r_i_docking_score>
-7.63552769612589

> <r_i_glide_ligand_efficiency>
-0.2632940584871

> <r_i_glide_ligand_efficiency_sa>
-0.808922765085069

> <r_i_glide_ligand_efficiency_ln>
-1.74834222213647

> <r_i_glide_gscore>
-8.03016469612589

> <r_i_glide_lipo>
-2.60428970082942

> <r_i_glide_hbond>
-0.358578302111287

> <r_i_glide_metal>
-0

> <r_i_glide_rewards>
-2.2111340674518

> <r_i_glide_evdw>
-45.042610168457

> <r_i_glide_ecoul>
-6.63394689559937

> <r_i_glide_erotb>
0.391059917029375

> <r_i_glide_esite>
0

> <r_i_glide_emodel>
-77.6935013742162

> <r_i_glide_energy>
-51.6765570640564

> <r_i_glide_einternal>
0.635762631893158

> <i_i_glide_confnum>
1

> <i_i_glide_posenum>
310

> <r_i_glide_eff_state_penalty>
0.394637

$$$$
