lig_syk_CHEMBL3265008
                    3D
 Schrodinger Suite 2020-3.
 48 51  0  0  1  0            999 V2000
   -4.6636   -2.9955   15.8258 C   0  0  0  0  0  0
   -4.0376   -2.0740   14.9376 O   0  0  0  0  0  0
   -2.6582   -1.9488   14.9573 C   0  0  0  0  0  0
   -1.8148   -2.7492   15.7468 C   0  0  0  0  0  0
   -0.4387   -2.5337   15.7620 C   0  0  0  0  0  0
    0.1329   -1.5196   14.9939 C   0  0  0  0  0  0
    1.5164   -1.3083   15.1413 N   0  0  0  0  0  0
    2.4456   -0.4008   14.5980 C   0  0  0  0  0  0
    2.0769    0.4429   13.5974 N   0  0  0  0  0  0
    2.9548    1.3504   13.0937 C   0  0  0  0  0  0
    2.4207    2.2915   12.0696 C   0  0  0  0  0  0
    3.2005    2.6898   10.9765 C   0  0  0  0  0  0
    2.6809    3.5400   10.0010 C   0  0  0  0  0  0
    1.3749    4.0167   10.1053 C   0  0  0  0  0  0
    0.9026    4.8385    9.1376 F   0  0  0  0  0  0
    0.5803    3.6522   11.2023 C   0  0  0  0  0  0
   -0.8171    4.1847   11.3555 C   0  0  0  0  0  0
   -1.1195    4.7021   12.5467 N   0  0  0  0  0  0
   -1.6356    4.1329   10.4420 O   0  0  0  0  0  0
    1.1183    2.7990   12.1758 C   0  0  0  0  0  0
    4.2675    1.4193   13.5540 C   0  0  0  0  0  0
    4.6345    0.5875   14.5752 N   0  0  0  0  0  0
    5.7999    0.4747   15.2819 C   0  0  0  0  0  0
    5.5398   -0.4798   16.2588 C   0  0  0  0  0  0
    4.3385   -1.0131   16.1753 N   0  0  0  0  0  0
    3.7478   -0.3477   15.1427 C   0  0  0  0  0  0
   -0.7014   -0.7482   14.1753 C   0  0  0  0  0  0
   -2.0929   -0.9506   14.1484 C   0  0  0  0  0  0
   -2.9596   -0.1916   13.3753 O   0  0  0  0  0  0
   -2.4279    0.7654   12.4615 C   0  0  0  0  0  0
   -5.7453   -2.9315   15.7084 H   0  0  0  0  0  0
   -4.3690   -4.0234   15.6092 H   0  0  0  0  0  0
   -4.4321   -2.7682   16.8682 H   0  0  0  0  0  0
   -2.2067   -3.5303   16.3816 H   0  0  0  0  0  0
    0.1778   -3.1462   16.4068 H   0  0  0  0  0  0
    1.9306   -1.8975   15.8515 H   0  0  0  0  0  0
    4.2091    2.3192   10.8650 H   0  0  0  0  0  0
    3.2891    3.8281    9.1566 H   0  0  0  0  0  0
   -0.4000    4.8335   13.2424 H   0  0  0  0  0  0
   -2.0425    5.0750   12.7013 H   0  0  0  0  0  0
    0.5164    2.5098   13.0268 H   0  0  0  0  0  0
    5.0008    2.1327   13.2100 H   0  0  0  0  0  0
    6.6703    1.0811   15.0788 H   0  0  0  0  0  0
    6.2299   -0.7799   17.0326 H   0  0  0  0  0  0
   -0.2818    0.0361   13.5743 H   0  0  0  0  0  0
   -3.2406    1.2128   11.8896 H   0  0  0  0  0  0
   -1.9113    1.5722   12.9834 H   0  0  0  0  0  0
   -1.7438    0.3043   11.7468 H   0  0  0  0  0  0
  1  2  1  0  0  0
  1 31  1  0  0  0
  1 32  1  0  0  0
  1 33  1  0  0  0
  2  3  1  0  0  0
  3 28  1  0  0  0
  3  4  2  0  0  0
  4  5  1  0  0  0
  4 34  1  0  0  0
  5  6  2  0  0  0
  5 35  1  0  0  0
  6  7  1  0  0  0
  6 27  1  0  0  0
  7  8  1  0  0  0
  7 36  1  0  0  0
  8 26  1  0  0  0
  8  9  2  0  0  0
  9 10  1  0  0  0
 10 11  1  0  0  0
 10 21  2  0  0  0
 11 20  1  0  0  0
 11 12  2  0  0  0
 12 13  1  0  0  0
 12 37  1  0  0  0
 13 14  2  0  0  0
 13 38  1  0  0  0
 14 15  1  0  0  0
 14 16  1  0  0  0
 16 17  1  0  0  0
 16 20  2  0  0  0
 17 18  1  0  0  0
 17 19  2  0  0  0
 18 39  1  0  0  0
 18 40  1  0  0  0
 20 41  1  0  0  0
 21 22  1  0  0  0
 21 42  1  0  0  0
 22 26  1  0  0  0
 22 23  1  0  0  0
 23 24  2  0  0  0
 23 43  1  0  0  0
 24 25  1  0  0  0
 24 44  1  0  0  0
 25 26  2  0  0  0
 27 28  2  0  0  0
 27 45  1  0  0  0
 28 29  1  0  0  0
 29 30  1  0  0  0
 30 46  1  0  0  0
 30 47  1  0  0  0
 30 48  1  0  0  0
M  END
> <s_m_source_file>
/home/user-home/yujie/0_PBCNetv2/data/FEP/syk/inp_ligprep.csv

> <i_m_source_file_index>
24

> <i_lp_mmshare_version>
51139

> <i_f3d_flags>
0

> <s_epik_input>
W0NIM11PYzFbY0hdW2NIXWMoW2NIXWMxT1tDSDNdKVtOSF1jKGMobjIzKW5bY0hdW2NIXTMpbmMoW2NIXTIpLWM0W2NIXVtjSF1jKEYpYyhbY0hdNClDKD1PKVtOSDJd

> <s_epik_cmdline>
J2VwaWtfcHl0aG9uJywgJy1waHQnLCAnMi4wJywgJy1waCcsICc3LjQnLCAnLXRuJywgJzgnLCAnLW1hJywgJzIwMCcsICctaW1hZScsICc8aW5maWxlLm1hZT4nLCAnLW9tYWUnLCAnPG91dGZpbGUubWFlPic=

> <r_lp_tautomer_probability>
1

> <r_epik_Ionization_Penalty>
  0.0010

> <r_epik_Ionization_Penalty_Charging>
  0.0010

> <r_epik_Ionization_Penalty_Neutral>
  0.0000

> <r_epik_State_Penalty>
  0.0007

> <r_epik_Charging_Adjusted_Penalty>
0.00169979

> <i_epik_Tot_Q>
0

> <i_epik_Tot_abs_Q>
0

> <s_lp_Force_Field>
OPLS3e

> <r_lp_Energy>
41.4573

> <b_lp_Chiralities_Consistent>
1

> <s_lp_Variant>
lig_syk_CHEMBL3265008-1

> <s_i_glide_gridfile>
syk-001-gridgen

> <i_i_glide_lignum>
40

> <i_i_glide_rotatable_bonds>
6

> <r_i_docking_score>
-8.2451994582692

> <r_i_glide_ligand_efficiency>
-0.274839981942307

> <r_i_glide_ligand_efficiency_sa>
-0.853991724858708

> <r_i_glide_ligand_efficiency_ln>
-1.87339915556237

> <r_i_glide_gscore>
-8.2458710022692

> <r_i_glide_lipo>
-2.44885940708418

> <r_i_glide_hbond>
-0.360482346234685

> <r_i_glide_metal>
-0

> <r_i_glide_rewards>
-2.11021646763195

> <r_i_glide_evdw>
-46.1145935058594

> <r_i_glide_ecoul>
-9.10881996154785

> <r_i_glide_erotb>
0.355566001392427

> <r_i_glide_esite>
-0.00982611318566212

> <r_i_glide_emodel>
-82.0494761884923

> <r_i_glide_energy>
-55.2234134674072

> <r_i_glide_einternal>
1.44220316410065

> <i_i_glide_confnum>
2

> <i_i_glide_posenum>
31

> <r_i_glide_eff_state_penalty>
0.000671544

$$$$
