lig_syk_CHEMBL3264999
                    3D
 Schrodinger Suite 2024-1.
 62 66  0  0  1  0            999 V2000
   -4.8512   -2.3540   15.6807 C   0  0  0  0  0  0
   -4.1991   -1.5086   14.7377 O   0  0  0  0  0  0
   -2.8161   -1.5228   14.7319 C   0  0  0  0  0  0
   -2.0391   -2.4480   15.4727 C   0  0  0  0  0  0
   -0.6373   -2.3551   15.4926 C   0  0  0  0  0  0
    0.0306   -1.3529   14.7650 C   0  0  0  0  0  0
    1.4281   -1.3023   14.9067 N   0  0  0  0  0  0
    2.4014   -0.3845   14.4788 C   0  0  0  0  0  0
    2.1578    0.4373   13.4965 N   0  0  0  0  0  0
    3.1294    1.3266   13.1013 C   0  0  0  0  0  0
    4.3677    1.3881   13.6820 C   0  0  0  0  0  0
    4.6067    0.5483   14.7145 N   0  0  0  0  0  0
    5.7104    0.4173   15.5292 C   0  0  0  0  0  0
    5.3866   -0.5234   16.4653 C   0  0  0  0  0  0
    4.1205   -1.0507   16.2297 N   0  0  0  0  0  0
    3.6471   -0.3828   15.1734 C   0  0  0  0  0  0
    2.7708    2.2342   11.9936 C   0  0  0  0  0  0
    3.7213    2.5660   11.0013 C   0  0  0  0  0  0
    3.3772    3.3935    9.9164 C   0  0  0  0  0  0
    2.0733    3.9070    9.8127 C   0  0  0  0  0  0
    1.1123    3.6097   10.8012 C   0  0  0  0  0  0
    1.4710    2.7789   11.8886 C   0  0  0  0  0  0
   -0.2965    4.0934   10.6286 C   0  0  0  0  0  0
   -0.7686    4.1887    9.4980 O   0  0  0  0  0  0
   -0.9227    4.4451   11.7650 N   0  0  0  0  0  0
   -2.2594    4.8918   11.9570 C   0  0  0  0  0  0
   -2.5925    5.4027   13.2283 C   0  0  0  0  0  0
   -3.8948    5.8647   13.4984 C   0  0  0  0  0  0
   -4.8852    5.8418   12.4946 C   0  0  0  0  0  0
   -4.5583    5.3223   11.2221 C   0  0  0  0  0  0
   -3.2633    4.8370   10.9591 C   0  0  0  0  0  0
   -6.2354    6.4359   12.7675 C   0  0  0  0  0  0
   -6.4027    7.3055   13.6140 O   0  0  0  0  0  0
   -7.2550    5.9417   12.0772 N   0  0  0  0  0  0
   -0.7411   -0.4678   13.9748 C   0  0  0  0  0  0
   -2.1599   -0.5421   13.9536 C   0  0  0  0  0  0
   -2.9616    0.3280   13.2359 O   0  0  0  0  0  0
   -2.3248    1.1653   12.2773 C   0  0  0  0  0  0
   -5.9262   -2.1810   15.6454 H   0  0  0  0  0  0
   -4.6827   -3.4080   15.4549 H   0  0  0  0  0  0
   -4.5207   -2.1479   16.7008 H   0  0  0  0  0  0
   -2.4854   -3.2236   16.0771 H   0  0  0  0  0  0
   -0.0795   -3.0515   16.1052 H   0  0  0  0  0  0
    1.8130   -1.9169   15.6203 H   0  0  0  0  0  0
    5.1466    2.0879   13.4131 H   0  0  0  0  0  0
    6.5962    1.0155   15.3884 H   0  0  0  0  0  0
    5.9723   -0.8546   17.3085 H   0  0  0  0  0  0
    4.7118    2.1393   11.0483 H   0  0  0  0  0  0
    4.0974    3.6049    9.1435 H   0  0  0  0  0  0
    1.7950    4.5125    8.9603 H   0  0  0  0  0  0
    0.7379    2.5085   12.6350 H   0  0  0  0  0  0
   -0.3420    4.4314   12.5893 H   0  0  0  0  0  0
   -1.8510    5.4618   14.0128 H   0  0  0  0  0  0
   -4.1248    6.2641   14.4781 H   0  0  0  0  0  0
   -5.2822    5.3202   10.4211 H   0  0  0  0  0  0
   -3.0648    4.4527    9.9702 H   0  0  0  0  0  0
   -7.0984    5.2471   11.3689 H   0  0  0  0  0  0
   -8.1640    6.3476   12.2328 H   0  0  0  0  0  0
   -0.2435    0.2929   13.4034 H   0  0  0  0  0  0
   -3.0769    1.6922   11.6905 H   0  0  0  0  0  0
   -1.7054    1.9162   12.7676 H   0  0  0  0  0  0
   -1.7116    0.5915   11.5797 H   0  0  0  0  0  0
  1  2  1  0  0  0
  1 39  1  0  0  0
  1 40  1  0  0  0
  1 41  1  0  0  0
  2  3  1  0  0  0
  3 36  1  0  0  0
  3  4  2  0  0  0
  4  5  1  0  0  0
  4 42  1  0  0  0
  5  6  2  0  0  0
  5 43  1  0  0  0
  6  7  1  0  0  0
  6 35  1  0  0  0
  7  8  1  0  0  0
  7 44  1  0  0  0
  8 16  1  0  0  0
  8  9  2  0  0  0
  9 10  1  0  0  0
 10 11  2  0  0  0
 10 17  1  0  0  0
 11 12  1  0  0  0
 11 45  1  0  0  0
 12 16  1  0  0  0
 12 13  1  0  0  0
 13 14  2  0  0  0
 13 46  1  0  0  0
 14 15  1  0  0  0
 14 47  1  0  0  0
 15 16  2  0  0  0
 17 22  1  0  0  0
 17 18  2  0  0  0
 18 19  1  0  0  0
 18 48  1  0  0  0
 19 20  2  0  0  0
 19 49  1  0  0  0
 20 21  1  0  0  0
 20 50  1  0  0  0
 21 22  2  0  0  0
 21 23  1  0  0  0
 22 51  1  0  0  0
 23 24  2  0  0  0
 23 25  1  0  0  0
 25 26  1  0  0  0
 25 52  1  0  0  0
 26 31  1  0  0  0
 26 27  2  0  0  0
 27 28  1  0  0  0
 27 53  1  0  0  0
 28 29  2  0  0  0
 28 54  1  0  0  0
 29 30  1  0  0  0
 29 32  1  0  0  0
 30 31  2  0  0  0
 30 55  1  0  0  0
 31 56  1  0  0  0
 32 33  2  0  0  0
 32 34  1  0  0  0
 34 57  1  0  0  0
 34 58  1  0  0  0
 35 36  2  0  0  0
 35 59  1  0  0  0
 36 37  1  0  0  0
 37 38  1  0  0  0
 38 60  1  0  0  0
 38 61  1  0  0  0
 38 62  1  0  0  0
M  END
> <Tot Q>
0

> <flags>
0

> <Source File Index>
2

> <subgroup collapsed>
0

> <Ionization Penalty>
0.0022

> <State Penalty>
0.0021

> <docking score>
-9.47061

> <glide emodel>
-103.828

> <glide gscore>
-9.47271

> <tautomer probability>
1

> <Source File>
glide-dock_SP_17_pv.maegz

> <Source Path>
C:\Users\yujie\Documents\Schrodinger\glide-dock_SP_17

> <entry id>
52

> <job name>
glide-dock_SP_17

> <subgroup title>
glide-dock_SP_17_pv

> <subgroupid>
glide-dock_SP_17_pv

$$$$
