lig_syk_CHEMBL3265003
                    3D
 Schrodinger Suite 2020-3.
 65 70  0  0  1  0            999 V2000
   -4.7400   -2.8909   15.0424 C   0  0  0  0  0  0
   -4.0562   -1.8572   14.3382 O   0  0  0  0  0  0
   -2.6815   -1.7388   14.4722 C   0  0  0  0  0  0
   -1.9024   -2.5997   15.2614 C   0  0  0  0  0  0
   -0.5286   -2.4042   15.3795 C   0  0  0  0  0  0
    0.1029   -1.3554   14.7149 C   0  0  0  0  0  0
    1.4795   -1.1968   14.9481 N   0  0  0  0  0  0
    2.4783   -0.3266   14.4773 C   0  0  0  0  0  0
    2.2265    0.5408   13.4553 N   0  0  0  0  0  0
    3.1908    1.4033   13.0261 C   0  0  0  0  0  0
    2.8314    2.3348   11.9135 C   0  0  0  0  0  0
    3.7906    2.7055   10.9600 C   0  0  0  0  0  0
    3.4546    3.5226    9.8826 C   0  0  0  0  0  0
    2.1500    3.9832    9.7366 C   0  0  0  0  0  0
    1.1718    3.6508   10.6807 C   0  0  0  0  0  0
   -0.2487    4.1115   10.4798 C   0  0  0  0  0  0
   -0.7248    4.1494    9.3440 O   0  0  0  0  0  0
   -0.8995    4.4696   11.6082 N   0  0  0  0  0  0
   -2.2519    4.8185   11.7832 C   0  0  0  0  0  0
   -3.2570    4.5830   10.8340 C   0  0  0  0  0  0
   -4.5793    4.9074   11.1225 C   0  0  0  0  0  0
   -4.9250    5.4589   12.3610 C   0  0  0  0  0  0
   -6.3661    5.7484   12.6703 C   0  0  0  0  0  0
   -7.5038    5.3227   11.9560 C   0  0  0  0  0  0
   -8.5990    5.7816   12.6614 C   0  0  0  0  0  0
   -8.0626    6.4519   13.7237 N   0  0  0  0  0  0
   -6.7258    6.4493   13.7297 N   0  0  0  0  0  0
   -3.9152    5.7003   13.3014 C   0  0  0  0  0  0
   -2.5901    5.3855   13.0119 C   0  0  0  0  0  0
    1.5282    2.8385   11.7703 C   0  0  0  0  0  0
    4.4566    1.4147   13.6092 C   0  0  0  0  0  0
    4.7033    0.5541   14.6405 N   0  0  0  0  0  0
    5.8042    0.3773   15.4312 C   0  0  0  0  0  0
    5.4318   -0.5932   16.3566 C   0  0  0  0  0  0
    4.2168   -1.0637   16.1752 N   0  0  0  0  0  0
    3.7358   -0.3477   15.1188 C   0  0  0  0  0  0
   -0.6650   -0.5101   13.9060 C   0  0  0  0  0  0
   -2.0555   -0.6898   13.7801 C   0  0  0  0  0  0
   -2.8687    0.1336   13.0186 O   0  0  0  0  0  0
   -2.2787    1.1621   12.2287 C   0  0  0  0  0  0
   -8.5997    6.9007   14.4508 H   0  0  0  0  0  0
   -5.8072   -2.8278   14.8280 H   0  0  0  0  0  0
   -4.3997   -3.8799   14.7306 H   0  0  0  0  0  0
   -4.6154   -2.7916   16.1231 H   0  0  0  0  0  0
   -2.3431   -3.4151   15.8144 H   0  0  0  0  0  0
    0.0401   -3.0684   16.0171 H   0  0  0  0  0  0
    1.8327   -1.8230   15.6598 H   0  0  0  0  0  0
    4.8024    2.3348   11.0304 H   0  0  0  0  0  0
    4.2031    3.7843    9.1496 H   0  0  0  0  0  0
    1.9048    4.5984    8.8820 H   0  0  0  0  0  0
   -0.3345    4.5131   12.4431 H   0  0  0  0  0  0
   -3.0454    4.1323    9.8772 H   0  0  0  0  0  0
   -5.3332    4.7103   10.3748 H   0  0  0  0  0  0
   -7.5272    4.7339   11.0512 H   0  0  0  0  0  0
   -9.6673    5.6910   12.5193 H   0  0  0  0  0  0
   -4.1521    6.1168   14.2703 H   0  0  0  0  0  0
   -1.8325    5.5725   13.7630 H   0  0  0  0  0  0
    0.7799    2.5516   12.4952 H   0  0  0  0  0  0
    5.2538    2.0882   13.3348 H   0  0  0  0  0  0
    6.7134    0.9438   15.3062 H   0  0  0  0  0  0
    6.0528   -0.9546   17.1616 H   0  0  0  0  0  0
   -0.1925    0.3082   13.3948 H   0  0  0  0  0  0
   -3.0573    1.6634   11.6547 H   0  0  0  0  0  0
   -1.7938    1.9125   12.8561 H   0  0  0  0  0  0
   -1.5553    0.7640   11.5150 H   0  0  0  0  0  0
  1  2  1  0  0  0
  1 42  1  0  0  0
  1 43  1  0  0  0
  1 44  1  0  0  0
  2  3  1  0  0  0
  3 38  1  0  0  0
  3  4  2  0  0  0
  4  5  1  0  0  0
  4 45  1  0  0  0
  5  6  2  0  0  0
  5 46  1  0  0  0
  6  7  1  0  0  0
  6 37  1  0  0  0
  7  8  1  0  0  0
  7 47  1  0  0  0
  8 36  1  0  0  0
  8  9  2  0  0  0
  9 10  1  0  0  0
 10 11  1  0  0  0
 10 31  2  0  0  0
 11 30  1  0  0  0
 11 12  2  0  0  0
 12 13  1  0  0  0
 12 48  1  0  0  0
 13 14  2  0  0  0
 13 49  1  0  0  0
 14 15  1  0  0  0
 14 50  1  0  0  0
 15 16  1  0  0  0
 15 30  2  0  0  0
 16 17  2  0  0  0
 16 18  1  0  0  0
 18 19  1  0  0  0
 18 51  1  0  0  0
 19 29  1  0  0  0
 19 20  2  0  0  0
 20 21  1  0  0  0
 20 52  1  0  0  0
 21 22  2  0  0  0
 21 53  1  0  0  0
 22 28  1  0  0  0
 22 23  1  0  0  0
 23 27  2  0  0  0
 23 24  1  0  0  0
 24 25  2  0  0  0
 24 54  1  0  0  0
 25 26  1  0  0  0
 25 55  1  0  0  0
 26 27  1  0  0  0
 26 41  1  0  0  0
 28 29  2  0  0  0
 28 56  1  0  0  0
 29 57  1  0  0  0
 30 58  1  0  0  0
 31 32  1  0  0  0
 31 59  1  0  0  0
 32 36  1  0  0  0
 32 33  1  0  0  0
 33 34  2  0  0  0
 33 60  1  0  0  0
 34 35  1  0  0  0
 34 61  1  0  0  0
 35 36  2  0  0  0
 37 38  2  0  0  0
 37 62  1  0  0  0
 38 39  1  0  0  0
 39 40  1  0  0  0
 40 63  1  0  0  0
 40 64  1  0  0  0
 40 65  1  0  0  0
M  END
> <s_m_source_file>
/home/user-home/yujie/0_PBCNetv2/data/FEP/syk/inp_ligprep.csv

> <i_m_source_file_index>
5

> <i_lp_mmshare_version>
51139

> <i_f3d_flags>
0

> <s_epik_input>
W0NIM11PYzFbY0hdW2NIXWMoW2NIXWMxT1tDSDNdKVtOSF1jKGMobjIzKW5bY0hdW2NIXTMpbmMoW2NIXTIpLWM0W2NIXVtjSF1bY0hdYyhbY0hdNClDKD1PKVtOSF1jNVtjSF1bY0hdYyhbY0hdW2NIXTUpLWM2W2NIXVtjSF1uW25IXTY=

> <s_epik_cmdline>
J2VwaWtfcHl0aG9uJywgJy1waHQnLCAnMi4wJywgJy1waCcsICc3LjQnLCAnLXRuJywgJzgnLCAnLW1hJywgJzIwMCcsICctaW1hZScsICc8aW5maWxlLm1hZT4nLCAnLW9tYWUnLCAnPG91dGZpbGUubWFlPic=

> <r_lp_tautomer_probability>
0.5

> <r_epik_Ionization_Penalty>
  0.0009

> <r_epik_Ionization_Penalty_Charging>
  0.0009

> <r_epik_Ionization_Penalty_Neutral>
  0.0000

> <r_epik_State_Penalty>
  0.4112

> <r_epik_Charging_Adjusted_Penalty>
0.412081

> <i_epik_Tot_Q>
0

> <i_epik_Tot_abs_Q>
0

> <s_lp_Force_Field>
OPLS3e

> <r_lp_Energy>
61.5813

> <b_lp_Chiralities_Consistent>
1

> <s_lp_Variant>
lig_syk_CHEMBL3265003-2

> <s_i_glide_gridfile>
syk-001-gridgen

> <i_i_glide_lignum>
10

> <i_i_glide_rotatable_bonds>
9

> <r_i_docking_score>
-8.37097563346553

> <r_i_glide_ligand_efficiency>
-0.209274390836638

> <r_i_glide_ligand_efficiency_sa>
-0.715708348292086

> <r_i_glide_ligand_efficiency_ln>
-1.78528275580235

> <r_i_glide_gscore>
-8.78220463346553

> <r_i_glide_lipo>
-3.04653025244691

> <r_i_glide_hbond>
-0.641929482205919

> <r_i_glide_metal>
-0

> <r_i_glide_rewards>
-1.49283750262704

> <r_i_glide_evdw>
-56.5331001281738

> <r_i_glide_ecoul>
-8.55813598632812

> <r_i_glide_erotb>
0.510846349302279

> <r_i_glide_esite>
-0.00137834113003939

> <r_i_glide_emodel>
-97.7472360867792

> <r_i_glide_energy>
-65.091236114502

> <r_i_glide_einternal>
4.73924541473389

> <i_i_glide_confnum>
46

> <i_i_glide_posenum>
299

> <r_i_glide_eff_state_penalty>
0.411229

$$$$
