lig_syk_CHEMBL3265009
                    3D
 Schrodinger Suite 2020-3.
 51 54  0  0  1  0            999 V2000
   -4.7856   -3.1276   15.1188 C   0  0  0  0  0  0
   -4.1294   -2.0452   14.4651 O   0  0  0  0  0  0
   -2.7582   -1.8988   14.6103 C   0  0  0  0  0  0
   -1.9610   -2.7615   15.3842 C   0  0  0  0  0  0
   -0.5894   -2.5472   15.5098 C   0  0  0  0  0  0
    0.0224   -1.4704   14.8694 C   0  0  0  0  0  0
    1.4001   -1.2864   15.0931 N   0  0  0  0  0  0
    2.3690   -0.3915   14.6009 C   0  0  0  0  0  0
    2.0549    0.4831   13.6104 N   0  0  0  0  0  0
    2.9777    1.3647   13.1455 C   0  0  0  0  0  0
    2.5080    2.3247   12.1068 C   0  0  0  0  0  0
    3.3382    2.7024   11.0476 C   0  0  0  0  0  0
    2.8768    3.5619   10.0521 C   0  0  0  0  0  0
    1.5805    4.0822   10.0998 C   0  0  0  0  0  0
    1.1557    5.0338    8.9863 C   0  0  0  0  0  0
    0.7337    3.7422   11.1791 C   0  0  0  0  0  0
   -0.6734    4.2745   11.3037 C   0  0  0  0  0  0
   -1.0349    4.7146   12.5101 N   0  0  0  0  0  0
   -1.4502    4.2953   10.3517 O   0  0  0  0  0  0
    1.2165    2.8659   12.1624 C   0  0  0  0  0  0
    4.2793    1.3845   13.6436 C   0  0  0  0  0  0
    4.5945    0.5137   14.6482 N   0  0  0  0  0  0
    5.7375    0.3342   15.3758 C   0  0  0  0  0  0
    5.4317   -0.6682   16.2904 C   0  0  0  0  0  0
    4.2081   -1.1397   16.1755 N   0  0  0  0  0  0
    3.6604   -0.4020   15.1697 C   0  0  0  0  0  0
   -0.7650   -0.6202   14.0845 C   0  0  0  0  0  0
   -2.1513   -0.8210   13.9482 C   0  0  0  0  0  0
   -2.9694    0.0114   13.2005 O   0  0  0  0  0  0
   -2.3805    1.0172   12.3816 C   0  0  0  0  0  0
   -5.8530   -3.0909   14.8946 H   0  0  0  0  0  0
   -4.4126   -4.0927   14.7721 H   0  0  0  0  0  0
   -4.6773   -3.0720   16.2032 H   0  0  0  0  0  0
   -2.3877   -3.5997   15.9161 H   0  0  0  0  0  0
   -0.0078   -3.2180   16.1296 H   0  0  0  0  0  0
    1.7820   -1.9132   15.7904 H   0  0  0  0  0  0
    4.3438    2.3097   10.9754 H   0  0  0  0  0  0
    3.5384    3.8216    9.2376 H   0  0  0  0  0  0
    2.0111    5.4027    8.4192 H   0  0  0  0  0  0
    0.4616    4.5388    8.3072 H   0  0  0  0  0  0
    0.6596    5.9128    9.3981 H   0  0  0  0  0  0
   -0.3490    4.7925   13.2477 H   0  0  0  0  0  0
   -1.9605    5.0872   12.6429 H   0  0  0  0  0  0
    0.5777    2.5851   12.9886 H   0  0  0  0  0  0
    5.0450    2.0773   13.3298 H   0  0  0  0  0  0
    6.6347    0.9110   15.2095 H   0  0  0  0  0  0
    6.1092   -1.0548   17.0361 H   0  0  0  0  0  0
   -0.3152    0.2247   13.5988 H   0  0  0  0  0  0
   -3.1555    1.5158   11.8025 H   0  0  0  0  0  0
   -1.8797    1.7796   12.9788 H   0  0  0  0  0  0
   -1.6686    0.5933   11.6718 H   0  0  0  0  0  0
  1  2  1  0  0  0
  1 31  1  0  0  0
  1 32  1  0  0  0
  1 33  1  0  0  0
  2  3  1  0  0  0
  3 28  1  0  0  0
  3  4  2  0  0  0
  4  5  1  0  0  0
  4 34  1  0  0  0
  5  6  2  0  0  0
  5 35  1  0  0  0
  6  7  1  0  0  0
  6 27  1  0  0  0
  7  8  1  0  0  0
  7 36  1  0  0  0
  8 26  1  0  0  0
  8  9  2  0  0  0
  9 10  1  0  0  0
 10 11  1  0  0  0
 10 21  2  0  0  0
 11 20  1  0  0  0
 11 12  2  0  0  0
 12 13  1  0  0  0
 12 37  1  0  0  0
 13 14  2  0  0  0
 13 38  1  0  0  0
 14 15  1  0  0  0
 14 16  1  0  0  0
 15 39  1  0  0  0
 15 40  1  0  0  0
 15 41  1  0  0  0
 16 17  1  0  0  0
 16 20  2  0  0  0
 17 18  1  0  0  0
 17 19  2  0  0  0
 18 42  1  0  0  0
 18 43  1  0  0  0
 20 44  1  0  0  0
 21 22  1  0  0  0
 21 45  1  0  0  0
 22 26  1  0  0  0
 22 23  1  0  0  0
 23 24  2  0  0  0
 23 46  1  0  0  0
 24 25  1  0  0  0
 24 47  1  0  0  0
 25 26  2  0  0  0
 27 28  2  0  0  0
 27 48  1  0  0  0
 28 29  1  0  0  0
 29 30  1  0  0  0
 30 49  1  0  0  0
 30 50  1  0  0  0
 30 51  1  0  0  0
M  END
> <s_m_source_file>
/home/user-home/yujie/0_PBCNetv2/data/FEP/syk/inp_ligprep.csv

> <i_m_source_file_index>
33

> <i_lp_mmshare_version>
51139

> <i_f3d_flags>
0

> <s_epik_input>
W0NIM11PYzFbY0hdW2NIXWMoW2NIXWMxT1tDSDNdKVtOSF1jKGMobjIzKW5bY0hdW2NIXTMpbmMoW2NIXTIpLWM0W2NIXVtjSF1jKFtDSDNdKWMoW2NIXTQpQyg9TylbTkgyXQ==

> <s_epik_cmdline>
J2VwaWtfcHl0aG9uJywgJy1waHQnLCAnMi4wJywgJy1waCcsICc3LjQnLCAnLXRuJywgJzgnLCAnLW1hJywgJzIwMCcsICctaW1hZScsICc8aW5maWxlLm1hZT4nLCAnLW9tYWUnLCAnPG91dGZpbGUubWFlPic=

> <r_lp_tautomer_probability>
1

> <r_epik_Ionization_Penalty>
  0.0014

> <r_epik_Ionization_Penalty_Charging>
  0.0014

> <r_epik_Ionization_Penalty_Neutral>
  0.0000

> <r_epik_State_Penalty>
  0.0009

> <r_epik_Charging_Adjusted_Penalty>
0.00230868

> <i_epik_Tot_Q>
0

> <i_epik_Tot_abs_Q>
0

> <s_lp_Force_Field>
OPLS3e

> <r_lp_Energy>
46.921

> <b_lp_Chiralities_Consistent>
1

> <s_lp_Variant>
lig_syk_CHEMBL3265009-1

> <s_i_glide_gridfile>
syk-001-gridgen

> <i_i_glide_lignum>
52

> <i_i_glide_rotatable_bonds>
6

> <r_i_docking_score>
-8.19136728953589

> <r_i_glide_ligand_efficiency>
-0.273045576317863

> <r_i_glide_ligand_efficiency_sa>
-0.848416089379892

> <r_i_glide_ligand_efficiency_ln>
-1.86116790027771

> <r_i_glide_gscore>
-8.19229050553589

> <r_i_glide_lipo>
-2.47531298442671

> <r_i_glide_hbond>
-0.418139733259608

> <r_i_glide_metal>
-0

> <r_i_glide_rewards>
-2.06835657644053

> <r_i_glide_evdw>
-45.2438926696777

> <r_i_glide_ecoul>
-8.80422401428223

> <r_i_glide_erotb>
0.361886690042097

> <r_i_glide_esite>
-0.00953966582491567

> <r_i_glide_emodel>
-81.4589329851759

> <r_i_glide_energy>
-54.04811668396

> <r_i_glide_einternal>
1.53553462028503

> <i_i_glide_confnum>
1

> <i_i_glide_posenum>
181

> <r_i_glide_eff_state_penalty>
0.000923216

$$$$
