lig_syk_CHEMBL3265013
                    3D
 Schrodinger Suite 2020-3.
 51 54  0  0  1  0            999 V2000
   -4.6652   -2.9968   15.8483 C   0  0  0  0  0  0
   -4.0412   -2.0775   14.9569 O   0  0  0  0  0  0
   -2.6617   -1.9529   14.9719 C   0  0  0  0  0  0
   -1.8166   -2.7487   15.7642 C   0  0  0  0  0  0
   -0.4404   -2.5332   15.7737 C   0  0  0  0  0  0
    0.1289   -1.5235   14.9985 C   0  0  0  0  0  0
    1.5121   -1.3106   15.1432 N   0  0  0  0  0  0
    2.4387   -0.3991   14.6023 C   0  0  0  0  0  0
    2.0684    0.4484   13.6058 N   0  0  0  0  0  0
    2.9445    1.3608   13.1065 C   0  0  0  0  0  0
    2.4051    2.3324   12.1107 C   0  0  0  0  0  0
    3.2172    2.8527   11.0971 C   0  0  0  0  0  0
    2.7175    3.7761   10.1819 C   0  0  0  0  0  0
    1.3850    4.2092   10.2510 C   0  0  0  0  0  0
    0.8802    5.2060    9.2382 C   0  0  0  0  0  0
    1.6436    6.2805    9.0400 N   0  0  0  0  0  0
   -0.1728    5.0385    8.6280 O   0  0  0  0  0  0
    0.5520    3.6885   11.2642 C   0  0  0  0  0  0
   -0.8994    4.1262   11.4444 C   0  0  0  0  0  0
    1.0742    2.7668   12.1758 C   0  0  0  0  0  0
    4.2607    1.4207   13.5620 C   0  0  0  0  0  0
    4.6306    0.5815   14.5756 N   0  0  0  0  0  0
    5.7997    0.4559   15.2741 C   0  0  0  0  0  0
    5.5377   -0.4987   16.2506 C   0  0  0  0  0  0
    4.3309   -1.0192   16.1752 N   0  0  0  0  0  0
    3.7411   -0.3479   15.1455 C   0  0  0  0  0  0
   -0.7065   -0.7582   14.1757 C   0  0  0  0  0  0
   -2.0979   -0.9621   14.1537 C   0  0  0  0  0  0
   -2.9667   -0.2122   13.3756 O   0  0  0  0  0  0
   -2.4375    0.7406   12.4573 C   0  0  0  0  0  0
   -5.7473   -2.9344   15.7321 H   0  0  0  0  0  0
   -4.3698   -4.0247   15.6334 H   0  0  0  0  0  0
   -4.4323   -2.7662   16.8896 H   0  0  0  0  0  0
   -2.2073   -3.5244   16.4062 H   0  0  0  0  0  0
    0.1780   -3.1404   16.4214 H   0  0  0  0  0  0
    1.9284   -1.9007   15.8513 H   0  0  0  0  0  0
    4.2461    2.5361   11.0078 H   0  0  0  0  0  0
    3.3783    4.1449    9.4097 H   0  0  0  0  0  0
    2.4319    6.4606    9.6431 H   0  0  0  0  0  0
    1.3543    6.9732    8.3677 H   0  0  0  0  0  0
   -1.2899    3.8633   12.4280 H   0  0  0  0  0  0
   -0.9860    5.2101   11.3608 H   0  0  0  0  0  0
   -1.5310    3.6781   10.6771 H   0  0  0  0  0  0
    0.4373    2.3911   12.9631 H   0  0  0  0  0  0
    4.9944    2.1372   13.2261 H   0  0  0  0  0  0
    6.6741    1.0549   15.0672 H   0  0  0  0  0  0
    6.2301   -0.8086   17.0184 H   0  0  0  0  0  0
   -0.2871    0.0202   13.5671 H   0  0  0  0  0  0
   -3.2519    1.1832   11.8840 H   0  0  0  0  0  0
   -1.9251    1.5491   12.9796 H   0  0  0  0  0  0
   -1.7513    0.2781   11.7456 H   0  0  0  0  0  0
  1  2  1  0  0  0
  1 31  1  0  0  0
  1 32  1  0  0  0
  1 33  1  0  0  0
  2  3  1  0  0  0
  3 28  1  0  0  0
  3  4  2  0  0  0
  4  5  1  0  0  0
  4 34  1  0  0  0
  5  6  2  0  0  0
  5 35  1  0  0  0
  6  7  1  0  0  0
  6 27  1  0  0  0
  7  8  1  0  0  0
  7 36  1  0  0  0
  8 26  1  0  0  0
  8  9  2  0  0  0
  9 10  1  0  0  0
 10 11  1  0  0  0
 10 21  2  0  0  0
 11 20  1  0  0  0
 11 12  2  0  0  0
 12 13  1  0  0  0
 12 37  1  0  0  0
 13 14  2  0  0  0
 13 38  1  0  0  0
 14 15  1  0  0  0
 14 18  1  0  0  0
 15 16  1  0  0  0
 15 17  2  0  0  0
 16 39  1  0  0  0
 16 40  1  0  0  0
 18 19  1  0  0  0
 18 20  2  0  0  0
 19 41  1  0  0  0
 19 42  1  0  0  0
 19 43  1  0  0  0
 20 44  1  0  0  0
 21 22  1  0  0  0
 21 45  1  0  0  0
 22 26  1  0  0  0
 22 23  1  0  0  0
 23 24  2  0  0  0
 23 46  1  0  0  0
 24 25  1  0  0  0
 24 47  1  0  0  0
 25 26  2  0  0  0
 27 28  2  0  0  0
 27 48  1  0  0  0
 28 29  1  0  0  0
 29 30  1  0  0  0
 30 49  1  0  0  0
 30 50  1  0  0  0
 30 51  1  0  0  0
M  END
> <s_m_source_file>
/home/user-home/yujie/0_PBCNetv2/data/FEP/syk/inp_ligprep.csv

> <i_m_source_file_index>
35

> <i_lp_mmshare_version>
51139

> <i_f3d_flags>
0

> <s_epik_input>
W0NIM11PYzFbY0hdW2NIXWMoW2NIXWMxT1tDSDNdKVtOSF1jKGMobjIzKW5bY0hdW2NIXTMpbmMoW2NIXTIpLWM0W2NIXVtjSF1jKEMoPU8pW05IMl0pYyhbQ0gzXSlbY0hdNA==

> <s_epik_cmdline>
J2VwaWtfcHl0aG9uJywgJy1waHQnLCAnMi4wJywgJy1waCcsICc3LjQnLCAnLXRuJywgJzgnLCAnLW1hJywgJzIwMCcsICctaW1hZScsICc8aW5maWxlLm1hZT4nLCAnLW9tYWUnLCAnPG91dGZpbGUubWFlPic=

> <r_lp_tautomer_probability>
1

> <r_epik_Ionization_Penalty>
  0.0012

> <r_epik_Ionization_Penalty_Charging>
  0.0012

> <r_epik_Ionization_Penalty_Neutral>
  0.0000

> <r_epik_State_Penalty>
  0.0008

> <r_epik_Charging_Adjusted_Penalty>
0.00203705

> <i_epik_Tot_Q>
0

> <i_epik_Tot_abs_Q>
0

> <s_lp_Force_Field>
OPLS3e

> <r_lp_Energy>
43.3112

> <b_lp_Chiralities_Consistent>
1

> <s_lp_Variant>
lig_syk_CHEMBL3265013-1

> <s_i_glide_gridfile>
syk-001-gridgen

> <i_i_glide_lignum>
54

> <i_i_glide_rotatable_bonds>
6

> <r_i_docking_score>
-8.13523557101212

> <r_i_glide_ligand_efficiency>
-0.271174519033737

> <r_i_glide_ligand_efficiency_sa>
-0.842602279372747

> <r_i_glide_ligand_efficiency_ln>
-1.84841416222505

> <r_i_glide_gscore>
-8.13604614801212

> <r_i_glide_lipo>
-2.39039793222872

> <r_i_glide_hbond>
-0.362488064503565

> <r_i_glide_metal>
-0

> <r_i_glide_rewards>
-2.10338047665214

> <r_i_glide_evdw>
-46.162914276123

> <r_i_glide_ecoul>
-8.89013767242432

> <r_i_glide_erotb>
0.361886690042097

> <r_i_glide_esite>
0

> <r_i_glide_emodel>
-82.1998488954093

> <r_i_glide_energy>
-55.0530519485474

> <r_i_glide_einternal>
1.2403177022934

> <i_i_glide_confnum>
2

> <i_i_glide_posenum>
386

> <r_i_glide_eff_state_penalty>
0.000810577

$$$$
