lig_syk_CHEMBL3264004
                    3D
 Schrodinger Suite 2024-1.
 65 70  0  0  1  0            999 V2000
   -4.8365   -2.4473   15.6679 C   0  0  0  0  0  0
   -4.1803   -1.5807   14.7477 O   0  0  0  0  0  0
   -2.7971   -1.5831   14.7584 C   0  0  0  0  0  0
   -2.0177   -2.4930   15.5159 C   0  0  0  0  0  0
   -0.6164   -2.3855   15.5478 C   0  0  0  0  0  0
    0.0490   -1.3822   14.8194 C   0  0  0  0  0  0
    1.4452   -1.3122   14.9764 N   0  0  0  0  0  0
    2.4195   -0.4066   14.5234 C   0  0  0  0  0  0
    2.1652    0.4081   13.5382 N   0  0  0  0  0  0
    3.1296    1.2960   13.1231 C   0  0  0  0  0  0
    4.3803    1.3543   13.6804 C   0  0  0  0  0  0
    4.6320    0.5238   14.7188 N   0  0  0  0  0  0
    5.7447    0.4021   15.5232 C   0  0  0  0  0  0
    5.4244   -0.5185   16.4809 C   0  0  0  0  0  0
    4.1575   -1.0512   16.2625 N   0  0  0  0  0  0
    3.6747   -0.3985   15.2017 C   0  0  0  0  0  0
    2.7393    2.2072   12.0267 C   0  0  0  0  0  0
    3.6660    2.5650   11.0206 C   0  0  0  0  0  0
    3.2848    3.3874    9.9436 C   0  0  0  0  0  0
    1.9660    3.8678    9.8600 C   0  0  0  0  0  0
    1.0272    3.5452   10.8622 C   0  0  0  0  0  0
    1.4258    2.7252   11.9439 C   0  0  0  0  0  0
   -0.4008    3.9800   10.7058 C   0  0  0  0  0  0
   -0.9016    4.0246    9.5846 O   0  0  0  0  0  0
   -1.0208    4.3453   11.8411 N   0  0  0  0  0  0
   -2.3672    4.7684   12.0230 C   0  0  0  0  0  0
   -3.4085    4.5028   11.1002 C   0  0  0  0  0  0
   -4.7144    4.9733   11.3426 C   0  0  0  0  0  0
   -5.0097    5.7125   12.5063 C   0  0  0  0  0  0
   -3.9812    5.9303   13.4462 C   0  0  0  0  0  0
   -2.6742    5.4656   13.2084 C   0  0  0  0  0  0
   -6.3482    6.2718   12.7382 C   0  0  0  0  0  0
   -6.6417    7.6239   13.0663 C   0  0  0  0  0  0
   -7.9363    7.7989   13.2948 N   0  0  0  0  0  0
   -8.4866    6.5901   13.0353 N   0  0  0  0  0  0
   -7.5552    5.6379   12.6794 C   0  0  0  0  0  0
   -0.7250   -0.5129   14.0144 C   0  0  0  0  0  0
   -2.1428   -0.6038   13.9782 C   0  0  0  0  0  0
   -2.9459    0.2477   13.2407 O   0  0  0  0  0  0
   -2.3056    1.0631   12.2668 C   0  0  0  0  0  0
   -5.9136   -2.2938   15.6114 H   0  0  0  0  0  0
   -4.6434   -3.4956   15.4351 H   0  0  0  0  0  0
   -4.5312   -2.2456   16.6967 H   0  0  0  0  0  0
   -2.4619   -3.2669   16.1244 H   0  0  0  0  0  0
   -0.0574   -3.0710   16.1714 H   0  0  0  0  0  0
    1.8295   -1.9158   15.6994 H   0  0  0  0  0  0
    5.1570    2.0504   13.3968 H   0  0  0  0  0  0
    6.6290    0.9983   15.3639 H   0  0  0  0  0  0
    6.0103   -0.8334   17.3295 H   0  0  0  0  0  0
    4.6663    2.1602   11.0489 H   0  0  0  0  0  0
    3.9879    3.6163    9.1590 H   0  0  0  0  0  0
    1.6596    4.4650    9.0114 H   0  0  0  0  0  0
    0.7097    2.4371   12.7000 H   0  0  0  0  0  0
   -0.4271    4.3929   12.6550 H   0  0  0  0  0  0
   -3.2266    3.9585   10.1851 H   0  0  0  0  0  0
   -5.4830    4.7986   10.6037 H   0  0  0  0  0  0
   -4.1885    6.4663   14.3621 H   0  0  0  0  0  0
   -1.9090    5.6651   13.9457 H   0  0  0  0  0  0
   -5.9625    8.4573   13.1821 H   0  0  0  0  0  0
   -9.4869    6.4335   13.0973 H   0  0  0  0  0  0
   -7.8240    4.6193   12.4448 H   0  0  0  0  0  0
   -0.2305    0.2493   13.4431 H   0  0  0  0  0  0
   -3.0538    1.5628   11.6522 H   0  0  0  0  0  0
   -1.7034    1.8333   12.7475 H   0  0  0  0  0  0
   -1.6731    0.4779   11.5965 H   0  0  0  0  0  0
  1  2  1  0  0  0
  1 41  1  0  0  0
  1 42  1  0  0  0
  1 43  1  0  0  0
  2  3  1  0  0  0
  3 38  1  0  0  0
  3  4  2  0  0  0
  4  5  1  0  0  0
  4 44  1  0  0  0
  5  6  2  0  0  0
  5 45  1  0  0  0
  6  7  1  0  0  0
  6 37  1  0  0  0
  7  8  1  0  0  0
  7 46  1  0  0  0
  8 16  1  0  0  0
  8  9  2  0  0  0
  9 10  1  0  0  0
 10 11  2  0  0  0
 10 17  1  0  0  0
 11 12  1  0  0  0
 11 47  1  0  0  0
 12 16  1  0  0  0
 12 13  1  0  0  0
 13 14  2  0  0  0
 13 48  1  0  0  0
 14 15  1  0  0  0
 14 49  1  0  0  0
 15 16  2  0  0  0
 17 22  1  0  0  0
 17 18  2  0  0  0
 18 19  1  0  0  0
 18 50  1  0  0  0
 19 20  2  0  0  0
 19 51  1  0  0  0
 20 21  1  0  0  0
 20 52  1  0  0  0
 21 22  2  0  0  0
 21 23  1  0  0  0
 22 53  1  0  0  0
 23 24  2  0  0  0
 23 25  1  0  0  0
 25 26  1  0  0  0
 25 54  1  0  0  0
 26 31  1  0  0  0
 26 27  2  0  0  0
 27 28  1  0  0  0
 27 55  1  0  0  0
 28 29  2  0  0  0
 28 56  1  0  0  0
 29 30  1  0  0  0
 29 32  1  0  0  0
 30 31  2  0  0  0
 30 57  1  0  0  0
 31 58  1  0  0  0
 32 36  2  0  0  0
 32 33  1  0  0  0
 33 34  2  0  0  0
 33 59  1  0  0  0
 34 35  1  0  0  0
 35 36  1  0  0  0
 35 60  1  0  0  0
 36 61  1  0  0  0
 37 38  2  0  0  0
 37 62  1  0  0  0
 38 39  1  0  0  0
 39 40  1  0  0  0
 40 63  1  0  0  0
 40 64  1  0  0  0
 40 65  1  0  0  0
M  END
> <Tot Q>
0

> <flags>
0

> <Source File Index>
1

> <subgroup collapsed>
0

> <Ionization Penalty>
0.0022

> <State Penalty>
0.0021

> <docking score>
-8.76814

> <glide emodel>
-99.1962

> <glide gscore>
-8.77024

> <tautomer probability>
0.5

> <Source File>
glide-dock_SP_17_pv.maegz

> <Source Path>
C:\Users\yujie\Documents\Schrodinger\glide-dock_SP_17

> <entry id>
55

> <job name>
glide-dock_SP_17

> <subgroup title>
glide-dock_SP_17_pv

> <subgroupid>
glide-dock_SP_17_pv

$$$$
