lig_syk_CHEMBL3265015
                    3D
 Schrodinger Suite 2020-3.
 51 54  0  0  1  0            999 V2000
   -4.6551   -2.9939   15.8604 C   0  0  0  0  0  0
   -4.0343   -2.0779   14.9643 O   0  0  0  0  0  0
   -2.6546   -1.9545   14.9746 C   0  0  0  0  0  0
   -1.8069   -2.7508   15.7646 C   0  0  0  0  0  0
   -0.4306   -2.5383   15.7690 C   0  0  0  0  0  0
    0.1388   -1.5330   14.9883 C   0  0  0  0  0  0
    1.5257   -1.3305   15.1206 N   0  0  0  0  0  0
    2.4527   -0.4213   14.5752 C   0  0  0  0  0  0
    2.0817    0.4132   13.5678 N   0  0  0  0  0  0
    2.9386    1.3532   13.0839 C   0  0  0  0  0  0
    2.3663    2.3244   12.0963 C   0  0  0  0  0  0
    1.0580    2.7919   12.3006 C   0  0  0  0  0  0
    0.4630    3.7045   11.4359 C   0  0  0  0  0  0
    1.1692    4.2004   10.3395 C   0  0  0  0  0  0
    0.5186    5.2017    9.4228 C   0  0  0  0  0  0
    1.2937    6.1882    8.9747 N   0  0  0  0  0  0
   -0.6700    5.1280    9.1230 O   0  0  0  0  0  0
    2.4738    3.7422   10.1156 C   0  0  0  0  0  0
    3.0740    2.8129   10.9730 C   0  0  0  0  0  0
    4.4698    2.3274   10.6005 C   0  0  0  0  0  0
    4.2403    1.4528   13.5730 C   0  0  0  0  0  0
    4.6220    0.6088   14.5780 N   0  0  0  0  0  0
    5.7866    0.5118   15.2891 C   0  0  0  0  0  0
    5.5381   -0.4527   16.2591 C   0  0  0  0  0  0
    4.3427   -0.9994   16.1753 N   0  0  0  0  0  0
    3.7490   -0.3478   15.1335 C   0  0  0  0  0  0
   -0.7013   -0.7618   14.1731 C   0  0  0  0  0  0
   -2.0943   -0.9618   14.1569 C   0  0  0  0  0  0
   -2.9687   -0.2096   13.3855 O   0  0  0  0  0  0
   -2.4417    0.7352   12.4561 C   0  0  0  0  0  0
   -5.7381   -2.9266   15.7526 H   0  0  0  0  0  0
   -4.3665   -4.0236   15.6444 H   0  0  0  0  0  0
   -4.4110   -2.7654   16.8998 H   0  0  0  0  0  0
   -2.1970   -3.5274   16.4061 H   0  0  0  0  0  0
    0.1895   -3.1483   16.4127 H   0  0  0  0  0  0
    1.9437   -1.9192   15.8277 H   0  0  0  0  0  0
    0.4900    2.4496   13.1540 H   0  0  0  0  0  0
   -0.5456    4.0386   11.6369 H   0  0  0  0  0  0
    2.2295    6.2975    9.3314 H   0  0  0  0  0  0
    0.8968    6.8891    8.3681 H   0  0  0  0  0  0
    3.0266    4.0961    9.2569 H   0  0  0  0  0  0
    5.2298    2.9295   11.0986 H   0  0  0  0  0  0
    4.6235    1.2790   10.8591 H   0  0  0  0  0  0
    4.6300    2.3933    9.5234 H   0  0  0  0  0  0
    4.9533    2.2023   13.2693 H   0  0  0  0  0  0
    6.6458    1.1361   15.0960 H   0  0  0  0  0  0
    6.2301   -0.7486   17.0341 H   0  0  0  0  0  0
   -0.2859    0.0181   13.5639 H   0  0  0  0  0  0
   -3.2583    1.1685   11.8813 H   0  0  0  0  0  0
   -1.9267    1.5528   12.9640 H   0  0  0  0  0  0
   -1.7569    0.2668   11.7457 H   0  0  0  0  0  0
  1  2  1  0  0  0
  1 31  1  0  0  0
  1 32  1  0  0  0
  1 33  1  0  0  0
  2  3  1  0  0  0
  3 28  1  0  0  0
  3  4  2  0  0  0
  4  5  1  0  0  0
  4 34  1  0  0  0
  5  6  2  0  0  0
  5 35  1  0  0  0
  6  7  1  0  0  0
  6 27  1  0  0  0
  7  8  1  0  0  0
  7 36  1  0  0  0
  8 26  1  0  0  0
  8  9  2  0  0  0
  9 10  1  0  0  0
 10 11  1  0  0  0
 10 21  2  0  0  0
 11 19  1  0  0  0
 11 12  2  0  0  0
 12 13  1  0  0  0
 12 37  1  0  0  0
 13 14  2  0  0  0
 13 38  1  0  0  0
 14 15  1  0  0  0
 14 18  1  0  0  0
 15 16  1  0  0  0
 15 17  2  0  0  0
 16 39  1  0  0  0
 16 40  1  0  0  0
 18 19  2  0  0  0
 18 41  1  0  0  0
 19 20  1  0  0  0
 20 42  1  0  0  0
 20 43  1  0  0  0
 20 44  1  0  0  0
 21 22  1  0  0  0
 21 45  1  0  0  0
 22 26  1  0  0  0
 22 23  1  0  0  0
 23 24  2  0  0  0
 23 46  1  0  0  0
 24 25  1  0  0  0
 24 47  1  0  0  0
 25 26  2  0  0  0
 27 28  2  0  0  0
 27 48  1  0  0  0
 28 29  1  0  0  0
 29 30  1  0  0  0
 30 49  1  0  0  0
 30 50  1  0  0  0
 30 51  1  0  0  0
M  END
> <s_m_source_file>
/home/user-home/yujie/0_PBCNetv2/data/FEP/syk/inp_ligprep.csv

> <i_m_source_file_index>
9

> <i_lp_mmshare_version>
51139

> <i_f3d_flags>
0

> <s_epik_input>
W0NIM11PYzFbY0hdW2NIXWMoW2NIXWMxT1tDSDNdKVtOSF1jKGMobjIzKW5bY0hdW2NIXTMpbmMoW2NIXTIpLWM0W2NIXVtjSF1jKEMoPU8pW05IMl0pW2NIXWM0W0NIM10=

> <s_epik_cmdline>
J2VwaWtfcHl0aG9uJywgJy1waHQnLCAnMi4wJywgJy1waCcsICc3LjQnLCAnLXRuJywgJzgnLCAnLW1hJywgJzIwMCcsICctaW1hZScsICc8aW5maWxlLm1hZT4nLCAnLW9tYWUnLCAnPG91dGZpbGUubWFlPic=

> <r_lp_tautomer_probability>
1

> <r_epik_Ionization_Penalty>
  0.0009

> <r_epik_Ionization_Penalty_Charging>
  0.0009

> <r_epik_Ionization_Penalty_Neutral>
  0.0000

> <r_epik_State_Penalty>
  0.0005

> <r_epik_Charging_Adjusted_Penalty>
0.00140069

> <i_epik_Tot_Q>
0

> <i_epik_Tot_abs_Q>
0

> <s_lp_Force_Field>
OPLS3e

> <r_lp_Energy>
43.2363

> <b_lp_Chiralities_Consistent>
1

> <s_lp_Variant>
lig_syk_CHEMBL3265015-1

> <s_i_glide_gridfile>
syk-001-gridgen

> <i_i_glide_lignum>
16

> <i_i_glide_rotatable_bonds>
6

> <r_i_docking_score>
-8.29866545840376

> <r_i_glide_ligand_efficiency>
-0.276622181946792

> <r_i_glide_ligand_efficiency_sa>
-0.859529434638479

> <r_i_glide_ligand_efficiency_ln>
-1.88554721335167

> <r_i_glide_gscore>
-8.29921458540376

> <r_i_glide_lipo>
-2.5718352283331

> <r_i_glide_hbond>
-0.352836559799774

> <r_i_glide_metal>
-0

> <r_i_glide_rewards>
-2.09515842064733

> <r_i_glide_evdw>
-47.5122489929199

> <r_i_glide_ecoul>
-8.43772411346436

> <r_i_glide_erotb>
0.361886690042097

> <r_i_glide_esite>
0

> <r_i_glide_emodel>
-82.513184521524

> <r_i_glide_energy>
-55.9499731063843

> <r_i_glide_einternal>
3.43566632270813

> <i_i_glide_confnum>
4

> <i_i_glide_posenum>
333

> <r_i_glide_eff_state_penalty>
0.000549127

$$$$
