lig_syk_CHEMBL3265026
                    3D
 Schrodinger Suite 2020-3.
 51 55  0  0  1  0            999 V2000
   -4.6752   -3.0307   15.3459 C   0  0  0  0  0  0
   -4.0213   -2.0021   14.6097 O   0  0  0  0  0  0
   -2.6452   -1.8735   14.7077 C   0  0  0  0  0  0
   -1.8302   -2.7475   15.4483 C   0  0  0  0  0  0
   -0.4563   -2.5330   15.5399 C   0  0  0  0  0  0
    0.1412   -1.4527   14.8926 C   0  0  0  0  0  0
    1.5217   -1.2637   15.0896 N   0  0  0  0  0  0
    2.4807   -0.3736   14.5683 C   0  0  0  0  0  0
    2.1506    0.4709   13.5529 N   0  0  0  0  0  0
    3.0555    1.3625   13.0665 C   0  0  0  0  0  0
    2.5788    2.2973   12.0078 C   0  0  0  0  0  0
    3.4311    2.6900   10.9638 C   0  0  0  0  0  0
    2.9892    3.5474    9.9551 C   0  0  0  0  0  0
    1.6796    4.0213    9.9758 C   0  0  0  0  0  0
    0.8076    3.6437   11.0139 C   0  0  0  0  0  0
    1.2704    2.8068   12.0292 C   0  0  0  0  0  0
   -0.5024    4.1597   11.0720 N   0  0  0  0  0  0
   -0.7611    5.3011   10.1917 C   0  0  0  0  0  0
   -0.0906    5.0640    8.8195 C   0  0  0  0  0  0
    1.3223    4.9049    8.9754 O   0  0  0  0  0  0
    4.3533    1.4170   13.5669 C   0  0  0  0  0  0
    4.6836    0.5781   14.5927 N   0  0  0  0  0  0
    5.8300    0.4527   15.3245 C   0  0  0  0  0  0
    5.5457   -0.5121   16.2830 C   0  0  0  0  0  0
    4.3382   -1.0290   16.1752 N   0  0  0  0  0  0
    3.7736   -0.3476   15.1382 C   0  0  0  0  0  0
   -0.6655   -0.6004   14.1302 C   0  0  0  0  0  0
   -2.0541   -0.7961   14.0310 C   0  0  0  0  0  0
   -2.8931    0.0423   13.3126 O   0  0  0  0  0  0
   -2.3260    1.0585   12.4897 C   0  0  0  0  0  0
   -5.7505   -2.9681   15.1793 H   0  0  0  0  0  0
   -4.5025   -2.9260   16.4184 H   0  0  0  0  0  0
   -4.3494   -4.0211   15.0250 H   0  0  0  0  0  0
   -2.2444   -3.5872   15.9859 H   0  0  0  0  0  0
    0.1392   -3.2062   16.1421 H   0  0  0  0  0  0
    1.9064   -1.8733   15.7995 H   0  0  0  0  0  0
    4.4443    2.3171   10.9209 H   0  0  0  0  0  0
    3.6586    3.8447    9.1613 H   0  0  0  0  0  0
    0.6065    2.5378   12.8380 H   0  0  0  0  0  0
   -0.9822    4.1999   11.9607 H   0  0  0  0  0  0
   -0.4151    6.2355   10.6380 H   0  0  0  0  0  0
   -1.8395    5.4183   10.0808 H   0  0  0  0  0  0
   -0.2812    5.9101    8.1593 H   0  0  0  0  0  0
   -0.5212    4.1805    8.3424 H   0  0  0  0  0  0
    5.1060    2.1197   13.2429 H   0  0  0  0  0  0
    6.7113    1.0486   15.1414 H   0  0  0  0  0  0
    6.2300   -0.8303   17.0552 H   0  0  0  0  0  0
   -0.2264    0.2459   13.6382 H   0  0  0  0  0  0
   -3.1189    1.5605   11.9357 H   0  0  0  0  0  0
   -1.8114    1.8145   13.0847 H   0  0  0  0  0  0
   -1.6312    0.6438   11.7567 H   0  0  0  0  0  0
  1  2  1  0  0  0
  1 31  1  0  0  0
  1 32  1  0  0  0
  1 33  1  0  0  0
  2  3  1  0  0  0
  3 28  1  0  0  0
  3  4  2  0  0  0
  4  5  1  0  0  0
  4 34  1  0  0  0
  5  6  2  0  0  0
  5 35  1  0  0  0
  6  7  1  0  0  0
  6 27  1  0  0  0
  7  8  1  0  0  0
  7 36  1  0  0  0
  8 26  1  0  0  0
  8  9  2  0  0  0
  9 10  1  0  0  0
 10 11  1  0  0  0
 10 21  2  0  0  0
 11 16  1  0  0  0
 11 12  2  0  0  0
 12 13  1  0  0  0
 12 37  1  0  0  0
 13 14  2  0  0  0
 13 38  1  0  0  0
 14 20  1  0  0  0
 14 15  1  0  0  0
 15 16  2  0  0  0
 15 17  1  0  0  0
 16 39  1  0  0  0
 17 18  1  0  0  0
 17 40  1  0  0  0
 18 19  1  0  0  0
 18 41  1  0  0  0
 18 42  1  0  0  0
 19 20  1  0  0  0
 19 43  1  0  0  0
 19 44  1  0  0  0
 21 22  1  0  0  0
 21 45  1  0  0  0
 22 26  1  0  0  0
 22 23  1  0  0  0
 23 24  2  0  0  0
 23 46  1  0  0  0
 24 25  1  0  0  0
 24 47  1  0  0  0
 25 26  2  0  0  0
 27 28  2  0  0  0
 27 48  1  0  0  0
 28 29  1  0  0  0
 29 30  1  0  0  0
 30 49  1  0  0  0
 30 50  1  0  0  0
 30 51  1  0  0  0
M  END
> <s_m_source_file>
/home/user-home/yujie/0_PBCNetv2/data/FEP/syk/inp_ligprep.csv

> <i_m_source_file_index>
2

> <i_lp_mmshare_version>
51139

> <i_f3d_flags>
0

> <s_epik_input>
W0NIM11PYzFbY0hdW2NIXWMoW2NIXWMxT1tDSDNdKVtOSF1jKGMobjIzKW5bY0hdW2NIXTMpbmMoW2NIXTIpLWMoW2NIXVtjSF00KVtjSF1jKGM0NSlbTkhdW0NIMl1bQ0gyXU81

> <s_epik_cmdline>
J2VwaWtfcHl0aG9uJywgJy1waHQnLCAnMi4wJywgJy1waCcsICc3LjQnLCAnLXRuJywgJzgnLCAnLW1hJywgJzIwMCcsICctaW1hZScsICc8aW5maWxlLm1hZT4nLCAnLW9tYWUnLCAnPG91dGZpbGUubWFlPic=

> <r_lp_tautomer_probability>
1

> <r_epik_Ionization_Penalty>
  0.0016

> <r_epik_Ionization_Penalty_Charging>
  0.0014

> <r_epik_Ionization_Penalty_Neutral>
  0.0002

> <r_epik_State_Penalty>
  0.0009

> <r_epik_Charging_Adjusted_Penalty>
0.00227679

> <i_epik_Tot_Q>
0

> <i_epik_Tot_abs_Q>
0

> <s_lp_Force_Field>
OPLS3e

> <r_lp_Energy>
46.1649

> <b_lp_Chiralities_Consistent>
1

> <s_lp_Variant>
lig_syk_CHEMBL3265026-1

> <s_i_glide_gridfile>
syk-001-gridgen

> <i_i_glide_lignum>
3

> <i_i_glide_rotatable_bonds>
5

> <r_i_docking_score>
-8.01643568704134

> <r_i_glide_ligand_efficiency>
-0.267214522901378

> <r_i_glide_ligand_efficiency_sa>
-0.830297650680778

> <r_i_glide_ligand_efficiency_ln>
-1.82142153415847

> <r_i_glide_gscore>
-8.01734565304134

> <r_i_glide_lipo>
-2.61357331413238

> <r_i_glide_hbond>
-0.374519021299853

> <r_i_glide_metal>
-0

> <r_i_glide_rewards>
-2.08232719866072

> <r_i_glide_evdw>
-45.2573432922363

> <r_i_glide_ecoul>
-6.97297096252441

> <r_i_glide_erotb>
0.361886690042097

> <r_i_glide_esite>
0

> <r_i_glide_emodel>
-77.3549153733334

> <r_i_glide_energy>
-52.2303142547607

> <r_i_glide_einternal>
0.820334136486053

> <i_i_glide_confnum>
7

> <i_i_glide_posenum>
190

> <r_i_glide_eff_state_penalty>
0.000909966

$$$$
