lig_syk_CHEMBL3265005
                    3D
 Schrodinger Suite 2020-3.
 48 51  0  0  1  0            999 V2000
   -4.6897   -2.9297   15.2421 C   0  0  0  0  0  0
   -4.0184   -1.9215   14.4918 O   0  0  0  0  0  0
   -2.6419   -1.8017   14.5983 C   0  0  0  0  0  0
   -1.8457   -2.6609   15.3751 C   0  0  0  0  0  0
   -0.4706   -2.4625   15.4719 C   0  0  0  0  0  0
    0.1474   -1.4101   14.7984 C   0  0  0  0  0  0
    1.5283   -1.2405   15.0080 N   0  0  0  0  0  0
    2.5076   -0.3626   14.5070 C   0  0  0  0  0  0
    2.2132    0.4850   13.4814 N   0  0  0  0  0  0
    3.1421    1.3655   13.0189 C   0  0  0  0  0  0
    2.7197    2.2880   11.9255 C   0  0  0  0  0  0
    3.6081    2.6312   10.8963 C   0  0  0  0  0  0
    3.2034    3.4521    9.8458 C   0  0  0  0  0  0
    1.9030    3.9512    9.8112 C   0  0  0  0  0  0
    1.0004    3.6528   10.8395 C   0  0  0  0  0  0
   -0.4038    4.1986   10.7920 C   0  0  0  0  0  0
   -0.9619    4.5189   11.9604 N   0  0  0  0  0  0
   -1.0056    4.3437    9.7305 O   0  0  0  0  0  0
    1.4237    2.8235   11.8905 C   0  0  0  0  0  0
    4.4213    1.4149   13.5647 C   0  0  0  0  0  0
    4.7119    0.5765   14.6040 N   0  0  0  0  0  0
    5.8331    0.4515   15.3752 C   0  0  0  0  0  0
    5.5136   -0.5140   16.3233 C   0  0  0  0  0  0
    4.3092   -1.0276   16.1750 N   0  0  0  0  0  0
    3.7821   -0.3476   15.1172 C   0  0  0  0  0  0
   -0.6392   -0.5695   14.0014 C   0  0  0  0  0  0
   -2.0299   -0.7522   13.8946 C   0  0  0  0  0  0
   -2.8533    0.0660   13.1380 O   0  0  0  0  0  0
   -2.2698    1.0575   12.2963 C   0  0  0  0  0  0
   -5.7607   -2.8648   15.0550 H   0  0  0  0  0  0
   -4.3647   -3.9295   14.9499 H   0  0  0  0  0  0
   -4.5351   -2.8009   16.3146 H   0  0  0  0  0  0
   -2.2743   -3.4788   15.9357 H   0  0  0  0  0  0
    0.1106   -3.1246   16.1010 H   0  0  0  0  0  0
    1.8984   -1.8567   15.7192 H   0  0  0  0  0  0
    4.6132    2.2365   10.8907 H   0  0  0  0  0  0
    3.8930    3.6922    9.0505 H   0  0  0  0  0  0
    1.6054    4.5806    8.9839 H   0  0  0  0  0  0
   -0.4070    4.5177   12.8028 H   0  0  0  0  0  0
   -1.8960    4.8952   11.9690 H   0  0  0  0  0  0
    0.7373    2.5653   12.6847 H   0  0  0  0  0  0
    5.1900    2.1096   13.2633 H   0  0  0  0  0  0
    6.7211    1.0459   15.2211 H   0  0  0  0  0  0
    6.1700   -0.8330   17.1191 H   0  0  0  0  0  0
   -0.1833    0.2534   13.4824 H   0  0  0  0  0  0
   -3.0531    1.5468   11.7175 H   0  0  0  0  0  0
   -1.7609    1.8255   12.8802 H   0  0  0  0  0  0
   -1.5659    0.6188   11.5864 H   0  0  0  0  0  0
  1  2  1  0  0  0
  1 30  1  0  0  0
  1 31  1  0  0  0
  1 32  1  0  0  0
  2  3  1  0  0  0
  3 27  1  0  0  0
  3  4  2  0  0  0
  4  5  1  0  0  0
  4 33  1  0  0  0
  5  6  2  0  0  0
  5 34  1  0  0  0
  6  7  1  0  0  0
  6 26  1  0  0  0
  7  8  1  0  0  0
  7 35  1  0  0  0
  8 25  1  0  0  0
  8  9  2  0  0  0
  9 10  1  0  0  0
 10 11  1  0  0  0
 10 20  2  0  0  0
 11 19  1  0  0  0
 11 12  2  0  0  0
 12 13  1  0  0  0
 12 36  1  0  0  0
 13 14  2  0  0  0
 13 37  1  0  0  0
 14 15  1  0  0  0
 14 38  1  0  0  0
 15 16  1  0  0  0
 15 19  2  0  0  0
 16 17  1  0  0  0
 16 18  2  0  0  0
 17 39  1  0  0  0
 17 40  1  0  0  0
 19 41  1  0  0  0
 20 21  1  0  0  0
 20 42  1  0  0  0
 21 25  1  0  0  0
 21 22  1  0  0  0
 22 23  2  0  0  0
 22 43  1  0  0  0
 23 24  1  0  0  0
 23 44  1  0  0  0
 24 25  2  0  0  0
 26 27  2  0  0  0
 26 45  1  0  0  0
 27 28  1  0  0  0
 28 29  1  0  0  0
 29 46  1  0  0  0
 29 47  1  0  0  0
 29 48  1  0  0  0
M  END
> <s_m_source_file>
/home/user-home/yujie/0_PBCNetv2/data/FEP/syk/inp_ligprep.csv

> <i_m_source_file_index>
15

> <i_lp_mmshare_version>
51139

> <i_f3d_flags>
0

> <s_epik_input>
W0NIM11PYzFbY0hdW2NIXWMoW2NIXWMxT1tDSDNdKVtOSF1jKGMobjIzKW5bY0hdW2NIXTMpbmMoW2NIXTIpLWM0W2NIXVtjSF1bY0hdYyhbY0hdNClDKD1PKVtOSDJd

> <s_epik_cmdline>
J2VwaWtfcHl0aG9uJywgJy1waHQnLCAnMi4wJywgJy1waCcsICc3LjQnLCAnLXRuJywgJzgnLCAnLW1hJywgJzIwMCcsICctaW1hZScsICc8aW5maWxlLm1hZT4nLCAnLW9tYWUnLCAnPG91dGZpbGUubWFlPic=

> <r_lp_tautomer_probability>
1

> <r_epik_Ionization_Penalty>
  0.0009

> <r_epik_Ionization_Penalty_Charging>
  0.0009

> <r_epik_Ionization_Penalty_Neutral>
  0.0000

> <r_epik_State_Penalty>
  0.0005

> <r_epik_Charging_Adjusted_Penalty>
0.00140069

> <i_epik_Tot_Q>
0

> <i_epik_Tot_abs_Q>
0

> <s_lp_Force_Field>
OPLS3e

> <r_lp_Energy>
41.0283

> <b_lp_Chiralities_Consistent>
1

> <s_lp_Variant>
lig_syk_CHEMBL3265005-1

> <s_i_glide_gridfile>
syk-001-gridgen

> <i_i_glide_lignum>
29

> <i_i_glide_rotatable_bonds>
6

> <r_i_docking_score>
-8.38625184160662

> <r_i_glide_ligand_efficiency>
-0.289181097986435

> <r_i_glide_ligand_efficiency_sa>
-0.888455952016801

> <r_i_glide_ligand_efficiency_ln>
-1.92023901472976

> <r_i_glide_gscore>
-8.38680096860662

> <r_i_glide_lipo>
-2.66622405958025

> <r_i_glide_hbond>
-0.361993701409948

> <r_i_glide_metal>
-0

> <r_i_glide_rewards>
-2.23252336265979

> <r_i_glide_evdw>
-45.6249389648438

> <r_i_glide_ecoul>
-8.18577098846436

> <r_i_glide_erotb>
0.385667362192308

> <r_i_glide_esite>
-0.00261461063710707

> <r_i_glide_emodel>
-81.4841802590843

> <r_i_glide_energy>
-53.8107099533081

> <r_i_glide_einternal>
1.04261457920074

> <i_i_glide_confnum>
1

> <i_i_glide_posenum>
165

> <r_i_glide_eff_state_penalty>
0.000549127

$$$$
