lig_syk_CHEMBL3265021
                    3D
 Schrodinger Suite 2020-3.
 47 51  0  0  1  0            999 V2000
   -4.7326   -2.7599   15.2648 C   0  0  0  0  0  0
   -4.0321   -1.8207   14.4521 O   0  0  0  0  0  0
   -2.6520   -1.7368   14.5558 C   0  0  0  0  0  0
   -1.8805   -2.5775   15.3753 C   0  0  0  0  0  0
   -0.5022   -2.4070   15.4699 C   0  0  0  0  0  0
    0.1444   -1.4012   14.7531 C   0  0  0  0  0  0
    1.5251   -1.2444   14.9744 N   0  0  0  0  0  0
    2.5120   -0.3685   14.4863 C   0  0  0  0  0  0
    2.2246    0.4773   13.4590 N   0  0  0  0  0  0
    3.1502    1.3656   13.0082 C   0  0  0  0  0  0
    2.7135    2.3088   11.9380 C   0  0  0  0  0  0
    3.6070    2.6926   10.9274 C   0  0  0  0  0  0
    3.2383    3.5581    9.9006 C   0  0  0  0  0  0
    1.9328    4.0647    9.8879 C   0  0  0  0  0  0
    1.3836    4.9224    8.9754 N   0  0  0  0  0  0
    0.1318    5.0871    9.4304 N   0  0  0  0  0  0
   -0.1778    4.3918   10.5729 C   0  0  0  0  0  0
    1.0096    3.6947   10.9123 C   0  0  0  0  0  0
    1.4097    2.8244   11.9345 C   0  0  0  0  0  0
    4.4265    1.4167   13.5601 C   0  0  0  0  0  0
    4.7124    0.5770   14.5984 N   0  0  0  0  0  0
    5.8294    0.4521   15.3755 C   0  0  0  0  0  0
    5.5022   -0.5070   16.3275 C   0  0  0  0  0  0
    4.2977   -1.0216   16.1752 N   0  0  0  0  0  0
    3.7803   -0.3477   15.1082 C   0  0  0  0  0  0
   -0.6177   -0.5900   13.9046 C   0  0  0  0  0  0
   -2.0096   -0.7472   13.7958 C   0  0  0  0  0  0
   -2.8053    0.0497   12.9882 O   0  0  0  0  0  0
   -2.1893    0.9587   12.0768 C   0  0  0  0  0  0
   -0.5183    5.6951    8.9508 H   0  0  0  0  0  0
   -5.8019   -2.6713   15.0790 H   0  0  0  0  0  0
   -4.5648   -2.5717   16.3279 H   0  0  0  0  0  0
   -4.4435   -3.7862   15.0315 H   0  0  0  0  0  0
   -2.3329   -3.3553   15.9717 H   0  0  0  0  0  0
    0.0590   -3.0503   16.1349 H   0  0  0  0  0  0
    1.8800   -1.8599   15.6945 H   0  0  0  0  0  0
    4.6118    2.2954   10.9251 H   0  0  0  0  0  0
    3.9446    3.8300    9.1291 H   0  0  0  0  0  0
   -1.1593    4.4696   11.0155 H   0  0  0  0  0  0
    0.7162    2.5537   12.7154 H   0  0  0  0  0  0
    5.1917    2.1202   13.2711 H   0  0  0  0  0  0
    6.7182    1.0472   15.2261 H   0  0  0  0  0  0
    6.1524   -0.8204   17.1326 H   0  0  0  0  0  0
   -0.1422    0.1909   13.3441 H   0  0  0  0  0  0
   -2.9524    1.4183   11.4495 H   0  0  0  0  0  0
   -1.6663    1.7588   12.6032 H   0  0  0  0  0  0
   -1.4885    0.4493   11.4123 H   0  0  0  0  0  0
  1  2  1  0  0  0
  1 31  1  0  0  0
  1 32  1  0  0  0
  1 33  1  0  0  0
  2  3  1  0  0  0
  3 27  1  0  0  0
  3  4  2  0  0  0
  4  5  1  0  0  0
  4 34  1  0  0  0
  5  6  2  0  0  0
  5 35  1  0  0  0
  6  7  1  0  0  0
  6 26  1  0  0  0
  7  8  1  0  0  0
  7 36  1  0  0  0
  8 25  1  0  0  0
  8  9  2  0  0  0
  9 10  1  0  0  0
 10 20  2  0  0  0
 10 11  1  0  0  0
 11 12  1  0  0  0
 11 19  2  0  0  0
 12 13  2  0  0  0
 12 37  1  0  0  0
 13 14  1  0  0  0
 13 38  1  0  0  0
 14 15  2  0  0  0
 14 18  1  0  0  0
 15 16  1  0  0  0
 16 30  1  0  0  0
 16 17  1  0  0  0
 17 18  2  0  0  0
 17 39  1  0  0  0
 18 19  1  0  0  0
 19 40  1  0  0  0
 20 21  1  0  0  0
 20 41  1  0  0  0
 21 25  1  0  0  0
 21 22  1  0  0  0
 22 23  2  0  0  0
 22 42  1  0  0  0
 23 24  1  0  0  0
 23 43  1  0  0  0
 24 25  2  0  0  0
 26 27  2  0  0  0
 26 44  1  0  0  0
 27 28  1  0  0  0
 28 29  1  0  0  0
 29 45  1  0  0  0
 29 46  1  0  0  0
 29 47  1  0  0  0
M  END
> <s_m_source_file>
/home/user-home/yujie/0_PBCNetv2/data/FEP/syk/inp_ligprep.csv

> <i_m_source_file_index>
17

> <i_lp_mmshare_version>
51139

> <i_f3d_flags>
0

> <s_epik_input>
W0NIM11PYzFbY0hdW2NIXWMoW2NIXWMxT1tDSDNdKVtOSF1jKGMobjIzKW5bY0hdW2NIXTMpbmMoW2NIXTIpLWMoW2NIXVtjSF00KVtjSF1jKGM0NSlbY0hdbltuSF01

> <s_epik_cmdline>
J2VwaWtfcHl0aG9uJywgJy1waHQnLCAnMi4wJywgJy1waCcsICc3LjQnLCAnLXRuJywgJzgnLCAnLW1hJywgJzIwMCcsICctaW1hZScsICc8aW5maWxlLm1hZT4nLCAnLW9tYWUnLCAnPG91dGZpbGUubWFlPic=

> <r_lp_tautomer_probability>
0.0196078

> <r_epik_Ionization_Penalty>
  0.0009

> <r_epik_Ionization_Penalty_Charging>
  0.0009

> <r_epik_Ionization_Penalty_Neutral>
  0.0000

> <r_epik_State_Penalty>
  2.4823

> <r_epik_Charging_Adjusted_Penalty>
2.48319

> <i_epik_Tot_Q>
0

> <i_epik_Tot_abs_Q>
0

> <s_lp_Force_Field>
OPLS3e

> <r_lp_Energy>
43.2508

> <b_lp_Chiralities_Consistent>
1

> <s_lp_Variant>
lig_syk_CHEMBL3265021-2

> <s_i_glide_gridfile>
syk-001-gridgen

> <i_i_glide_lignum>
32

> <i_i_glide_rotatable_bonds>
5

> <r_i_docking_score>
-5.6654489212664

> <r_i_glide_ligand_efficiency>
-0.195360307629876

> <r_i_glide_ligand_efficiency_sa>
-0.600208759528737

> <r_i_glide_ligand_efficiency_ln>
-1.29724413958098

> <r_i_glide_gscore>
-8.1477889212664

> <r_i_glide_lipo>
-2.72786708404969

> <r_i_glide_hbond>
-0.336353907769099

> <r_i_glide_metal>
-0

> <r_i_glide_rewards>
-2.24919974207635

> <r_i_glide_evdw>
-45.5276947021484

> <r_i_glide_ecoul>
-6.32695579528809

> <r_i_glide_erotb>
0.391059917029375

> <r_i_glide_esite>
0

> <r_i_glide_emodel>
-77.2221046012963

> <r_i_glide_energy>
-51.8546504974365

> <r_i_glide_einternal>
2.19684147834778

> <i_i_glide_confnum>
4

> <i_i_glide_posenum>
309

> <r_i_glide_eff_state_penalty>
2.48234

$$$$
