lig_syk_CHEMBL3264994
                    3D
 Schrodinger Suite 2020-3.
 64 68  0  0  1  0            999 V2000
   -4.5957   -1.7294   15.6161 C   0  0  0  0  0  0
   -3.7808   -2.6839   14.7131 C   0  0  0  0  0  0
   -4.0873   -4.1400   15.1542 C   0  0  0  0  0  0
   -4.2585   -2.5623   13.2404 C   0  0  0  0  0  0
   -2.2800   -2.3201   14.8374 C   0  0  0  0  0  0
   -1.3975   -3.0723   15.6288 C   0  0  0  0  0  0
   -0.0632   -2.7014   15.7526 C   0  0  0  0  0  0
    0.4308   -1.5798   15.0871 C   0  0  0  0  0  0
    1.7898   -1.2697   15.2750 N   0  0  0  0  0  0
    2.6794   -0.3536   14.6841 C   0  0  0  0  0  0
    2.2565    0.4542   13.6782 N   0  0  0  0  0  0
    3.0863    1.3828   13.1344 C   0  0  0  0  0  0
    2.4796    2.2756   12.1150 C   0  0  0  0  0  0
    3.1853    2.6715   10.9702 C   0  0  0  0  0  0
    2.5808    3.4668    9.9954 C   0  0  0  0  0  0
    1.2600    3.8871   10.1583 C   0  0  0  0  0  0
    0.5495    3.5208   11.3100 C   0  0  0  0  0  0
   -0.7525    3.9439   11.5873 N   0  0  0  0  0  0
   -1.7703    4.1193   10.7242 C   0  0  0  0  0  0
   -1.7186    3.8371    9.5240 O   0  0  0  0  0  0
   -3.0441    4.6490   11.3466 C   0  0  0  0  0  0
   -4.2782    4.3814   10.7420 C   0  0  0  0  0  0
   -5.4561    4.8848   11.2874 C   0  0  0  0  0  0
   -5.4241    5.6723   12.4456 C   0  0  0  0  0  0
   -6.6809    6.2590   13.0095 C   0  0  0  0  0  0
   -7.7696    5.7296   12.6874 O   0  0  0  0  0  0
   -6.5733    7.2492   13.7727 O   0  5  0  0  0  0
   -4.1924    5.9256   13.0594 C   0  0  0  0  0  0
   -3.0153    5.4262   12.5162 C   0  0  0  0  0  0
    1.1692    2.7363   12.2793 C   0  0  0  0  0  0
    4.4056    1.5116   13.5559 C   0  0  0  0  0  0
    4.8352    0.7005   14.5676 N   0  0  0  0  0  0
    6.0311    0.6259   15.2208 C   0  0  0  0  0  0
    5.8495   -0.3491   16.1910 C   0  0  0  0  0  0
    4.6574   -0.9079   16.1756 N   0  0  0  0  0  0
    4.0022   -0.2598   15.1741 C   0  0  0  0  0  0
   -0.4431   -0.8183   14.3056 C   0  0  0  0  0  0
   -1.7802   -1.1820   14.1877 C   0  0  0  0  0  0
   -5.6671   -1.9213   15.5437 H   0  0  0  0  0  0
   -4.4284   -0.6841   15.3648 H   0  0  0  0  0  0
   -4.3173   -1.8462   16.6649 H   0  0  0  0  0  0
   -3.4826   -4.8628   14.6044 H   0  0  0  0  0  0
   -3.9054   -4.2947   16.2196 H   0  0  0  0  0  0
   -5.1335   -4.3997   14.9860 H   0  0  0  0  0  0
   -3.6671   -3.1946   12.5765 H   0  0  0  0  0  0
   -5.3022   -2.8610   13.1300 H   0  0  0  0  0  0
   -4.1864   -1.5481   12.8512 H   0  0  0  0  0  0
   -1.7256   -3.9432   16.1748 H   0  0  0  0  0  0
    0.5878   -3.2963   16.3778 H   0  0  0  0  0  0
    2.2374   -1.8640   15.9581 H   0  0  0  0  0  0
    4.2010    2.3370   10.8177 H   0  0  0  0  0  0
    3.1332    3.7543    9.1137 H   0  0  0  0  0  0
    0.8034    4.5086    9.4028 H   0  0  0  0  0  0
   -0.9645    4.0913   12.5597 H   0  0  0  0  0  0
   -4.3335    3.7891    9.8375 H   0  0  0  0  0  0
   -6.3950    4.6804   10.7926 H   0  0  0  0  0  0
   -4.1386    6.5275   13.9576 H   0  0  0  0  0  0
   -2.0869    5.6700   13.0107 H   0  0  0  0  0  0
    0.6201    2.4642   13.1691 H   0  0  0  0  0  0
    5.0963    2.2484   13.1779 H   0  0  0  0  0  0
    6.8781    1.2507   14.9759 H   0  0  0  0  0  0
    6.5993   -0.6516   16.9072 H   0  0  0  0  0  0
   -0.1274    0.0719   13.7939 H   0  0  0  0  0  0
   -2.4213   -0.5521   13.5926 H   0  0  0  0  0  0
  1  2  1  0  0  0
  1 39  1  0  0  0
  1 40  1  0  0  0
  1 41  1  0  0  0
  2  3  1  0  0  0
  2  4  1  0  0  0
  2  5  1  0  0  0
  3 42  1  0  0  0
  3 43  1  0  0  0
  3 44  1  0  0  0
  4 45  1  0  0  0
  4 46  1  0  0  0
  4 47  1  0  0  0
  5 38  1  0  0  0
  5  6  2  0  0  0
  6  7  1  0  0  0
  6 48  1  0  0  0
  7  8  2  0  0  0
  7 49  1  0  0  0
  8  9  1  0  0  0
  8 37  1  0  0  0
  9 10  1  0  0  0
  9 50  1  0  0  0
 10 36  1  0  0  0
 10 11  2  0  0  0
 11 12  1  0  0  0
 12 13  1  0  0  0
 12 31  2  0  0  0
 13 30  1  0  0  0
 13 14  2  0  0  0
 14 15  1  0  0  0
 14 51  1  0  0  0
 15 16  2  0  0  0
 15 52  1  0  0  0
 16 17  1  0  0  0
 16 53  1  0  0  0
 17 18  1  0  0  0
 17 30  2  0  0  0
 18 19  1  0  0  0
 18 54  1  0  0  0
 19 20  2  0  0  0
 19 21  1  0  0  0
 21 29  1  0  0  0
 21 22  2  0  0  0
 22 23  1  0  0  0
 22 55  1  0  0  0
 23 24  2  0  0  0
 23 56  1  0  0  0
 24 25  1  0  0  0
 24 28  1  0  0  0
 25 26  2  0  0  0
 25 27  1  0  0  0
 28 29  2  0  0  0
 28 57  1  0  0  0
 29 58  1  0  0  0
 30 59  1  0  0  0
 31 32  1  0  0  0
 31 60  1  0  0  0
 32 36  1  0  0  0
 32 33  1  0  0  0
 33 34  2  0  0  0
 33 61  1  0  0  0
 34 35  1  0  0  0
 34 62  1  0  0  0
 35 36  2  0  0  0
 37 38  2  0  0  0
 37 63  1  0  0  0
 38 64  1  0  0  0
M  CHG  1  27  -1
M  END
> <s_m_source_file>
/home/user-home/yujie/0_PBCNetv2/data/FEP/syk/inp_ligprep.csv

> <i_m_source_file_index>
39

> <i_lp_mmshare_version>
51139

> <i_f3d_flags>
0

> <s_epik_input>
W0NIM11DKFtDSDNdKShbQ0gzXSljMVtjSF1bY0hdYyhbY0hdW2NIXTEpW05IXWMoYyhuMjMpbltjSF1bY0hdMyluYyhbY0hdMiktYzRbY0hdW2NIXVtjSF1jKFtjSF00KVtOSF1DKD1PKWM1W2NIXVtjSF1jKEMoPU8pW09IXSlbY0hdW2NIXTU=

> <s_epik_cmdline>
J2VwaWtfcHl0aG9uJywgJy1waHQnLCAnMi4wJywgJy1waCcsICc3LjQnLCAnLXRuJywgJzgnLCAnLW1hJywgJzIwMCcsICctaW1hZScsICc8aW5maWxlLm1hZT4nLCAnLW9tYWUnLCAnPG91dGZpbGUubWFlPic=

> <r_epik_Ionization_Penalty>
  0.0010

> <r_epik_Ionization_Penalty_Charging>
  0.0010

> <r_epik_Ionization_Penalty_Neutral>
  0.0000

> <r_epik_State_Penalty>
  0.0005

> <r_epik_Charging_Adjusted_Penalty>
0.00153029

> <i_epik_Tot_Q>
-1

> <i_epik_Tot_abs_Q>
1

> <s_lp_Force_Field>
OPLS3e

> <r_lp_Energy>
63.121

> <b_lp_Chiralities_Consistent>
1

> <s_lp_Variant>
lig_syk_CHEMBL3264994-1

> <s_i_glide_gridfile>
syk-001-gridgen

> <i_i_glide_lignum>
60

> <i_i_glide_rotatable_bonds>
8

> <r_i_docking_score>
-8.10682671295796

> <r_i_glide_ligand_efficiency>
-0.213337545077841

> <r_i_glide_ligand_efficiency_sa>
-0.717235579028898

> <r_i_glide_ligand_efficiency_ln>
-1.7480703179941

> <r_i_glide_gscore>
-8.10737583995796

> <r_i_glide_lipo>
-2.90124332453419

> <r_i_glide_hbond>
-0.289209100021188

> <r_i_glide_metal>
-0

> <r_i_glide_rewards>
-0.984114698572688

> <r_i_glide_evdw>
-51.3861465454102

> <r_i_glide_ecoul>
-12.3019323348999

> <r_i_glide_erotb>
0.481910585054019

> <r_i_glide_esite>
-0.000122124378420547

> <r_i_glide_emodel>
-96.4039665181786

> <r_i_glide_energy>
-63.6880788803101

> <r_i_glide_einternal>
5.37988328933716

> <i_i_glide_confnum>
7

> <i_i_glide_posenum>
87

> <r_i_glide_eff_state_penalty>
0.000549127

$$$$
