FMN
                    3D
 Schrodinger Suite 2024-1.
 50 52  0  0  1  0            999 V2000
   17.0077    7.4368    2.5805 N   0  0  0  0  0  0
   17.6416    6.1929    2.5833 C   0  0  0  0  0  0
   17.0149    5.1517    2.4145 O   0  0  0  0  0  0
   18.9747    6.1384    2.8141 N   0  0  0  0  0  0
   19.8143    7.1687    3.0345 C   0  0  0  0  0  0
   21.0189    7.0052    3.2144 O   0  0  0  0  0  0
   19.1723    8.5336    3.0337 C   0  0  0  0  0  0
   19.8506    9.6020    3.2149 N   0  0  0  0  0  0
   19.2256   10.8588    3.1408 C   0  0  0  0  0  0
   20.0476   11.9981    3.2270 C   0  0  0  0  0  0
   19.5064   13.2916    3.1172 C   0  0  0  0  0  0
   20.4269   14.4959    3.2100 C   0  0  0  0  0  0
   18.1169   13.4461    2.9121 C   0  0  0  0  0  0
   17.4978   14.8252    2.7642 C   0  0  0  0  0  0
   17.2854   12.3092    2.8389 C   0  0  0  0  0  0
   17.8218   10.9985    2.9387 C   0  0  0  0  0  0
   17.0750    9.7972    2.8146 N   0  0  0  0  0  0
   17.6762    8.5325    2.7910 C   0  0  0  0  0  0
   15.5985    9.9026    2.8168 C   0  0  0  0  0  0
   14.9521    9.5314    4.1799 C   0  0  1  0  0  0
   15.5822   10.2351    5.2304 O   0  0  0  0  0  0
   13.3977    9.6556    4.2693 C   0  0  2  0  0  0
   12.7796    8.9385    3.2146 O   0  0  0  0  0  0
   12.7342   11.0595    4.3635 C   0  0  2  0  0  0
   13.2157   11.9450    3.3677 O   0  0  0  0  0  0
   12.8407   11.7283    5.7514 C   0  0  0  0  0  0
   12.1265   10.9518    6.7060 O   0  0  0  0  0  0
   11.6499   11.7337    8.0579 P   0  0  0  0  0  0
   10.8349   12.9367    7.6153 O   0  0  0  0  0  0
   12.8888   12.1384    8.8146 O   0  5  0  0  0  0
   10.8419   10.7297    8.8589 O   0  5  0  0  0  0
   19.3917    5.2137    2.8149 H   0  0  0  0  0  0
   21.1118   11.8741    3.3646 H   0  0  0  0  0  0
   21.4654   14.1941    3.3469 H   0  0  0  0  0  0
   20.3681   15.0919    2.2991 H   0  0  0  0  0  0
   20.1500   15.1245    4.0563 H   0  0  0  0  0  0
   17.8620   15.3060    1.8562 H   0  0  0  0  0  0
   16.4100   14.7710    2.7008 H   0  0  0  0  0  0
   17.7488   15.4583    3.6142 H   0  0  0  0  0  0
   16.2356   12.4944    2.6890 H   0  0  0  0  0  0
   15.2133    9.2151    2.0624 H   0  0  0  0  0  0
   15.2336   10.8549    2.4578 H   0  0  0  0  0  0
   15.1795    8.4844    4.3771 H   0  0  0  0  0  0
   16.3156    9.7054    5.5302 H   0  0  0  0  0  0
   13.0998    9.1174    5.1714 H   0  0  0  0  0  0
   12.8494    9.4372    2.4108 H   0  0  0  0  0  0
   11.6653   10.9445    4.1746 H   0  0  0  0  0  0
   12.8421   11.7039    2.5294 H   0  0  0  0  0  0
   12.4159   12.7294    5.6808 H   0  0  0  0  0  0
   13.8708   11.8600    6.0772 H   0  0  0  0  0  0
  1  2  1  0  0  0
  1 18  2  0  0  0
  2  3  2  0  0  0
  2  4  1  0  0  0
  4  5  1  0  0  0
  4 32  1  0  0  0
  5  6  2  0  0  0
  5  7  1  0  0  0
  7  8  2  0  0  0
  7 18  1  0  0  0
  8  9  1  0  0  0
  9 10  2  0  0  0
  9 16  1  0  0  0
 10 11  1  0  0  0
 10 33  1  0  0  0
 11 12  1  0  0  0
 11 13  2  0  0  0
 12 34  1  0  0  0
 12 35  1  0  0  0
 12 36  1  0  0  0
 13 14  1  0  0  0
 13 15  1  0  0  0
 14 37  1  0  0  0
 14 38  1  0  0  0
 14 39  1  0  0  0
 15 16  2  0  0  0
 15 40  1  0  0  0
 16 17  1  0  0  0
 17 18  1  0  0  0
 17 19  1  0  0  0
 19 20  1  0  0  0
 19 41  1  0  0  0
 19 42  1  0  0  0
 20 21  1  0  0  0
 20 22  1  0  0  0
 20 43  1  0  0  0
 21 44  1  0  0  0
 22 23  1  0  0  0
 22 24  1  0  0  0
 22 45  1  0  0  0
 23 46  1  0  0  0
 24 25  1  0  0  0
 24 26  1  0  0  0
 24 47  1  0  0  0
 25 48  1  0  0  0
 26 27  1  0  0  0
 26 49  1  0  0  0
 26 50  1  0  0  0
 27 28  1  0  0  0
 28 29  2  0  0  0
 28 30  1  0  0  0
 28 31  1  0  0  0
M  CHG  2  30  -1  31  -1
M  END
> <Tot Q>
-2

> <flags>
0

> <Source File Index>
4

> <stars>
0

> <subgroup collapsed>
0

> <Ionization Penalty>
0.1164

> <State Penalty>
0.1158

> <docking score>
-10.7579

> <glide emodel>
-169.708

> <glide gscore>
-10.8737

> <Source File>
glide-dock_SP_P0A3E0_MT_E57Y_pv.maegz

> <Source Path>
C:\Users\yujie\Desktop\res\docking\P0A3E0\glide-dock_SP_P0A3E0_MT_E57Y

> <entry id>
1606

> <subgroup title>
glide-dock_SP_P0A3E0_MT_E57Y_pv

> <subgroupid>
glide-dock_SP_P0A3E0_MT_E57Y_pv

> <PDB TITLE>
WT_2V5V_complex

$$$$
