FMN
                    3D
 Schrodinger Suite 2024-1.
 50 52  0  0  1  0            999 V2000
   19.5100   10.0820   27.2468 N   0  0  0  0  0  0
   20.2413    8.9211   27.5279 C   0  0  0  0  0  0
   20.2131    7.9412   26.7901 O   0  0  0  0  0  0
   20.9968    8.8759   28.6517 N   0  0  0  0  0  0
   21.1279    9.8335   29.5905 C   0  0  0  0  0  0
   21.8131    9.6759   30.6008 O   0  0  0  0  0  0
   20.3633   11.1061   29.3264 C   0  0  0  0  0  0
   20.4225   12.1039   30.1246 N   0  0  0  0  0  0
   19.7059   13.2793   29.8482 C   0  0  0  0  0  0
   19.8601   14.3656   30.7279 C   0  0  0  0  0  0
   19.1186   15.5493   30.5647 C   0  0  0  0  0  0
   19.2929   16.6817   31.5613 C   0  0  0  0  0  0
   18.2229   15.6572   29.4795 C   0  0  0  0  0  0
   17.4002   16.9162   29.2685 C   0  0  0  0  0  0
   18.1044   14.5915   28.5640 C   0  0  0  0  0  0
   18.8488   13.3939   28.7199 C   0  0  0  0  0  0
   18.8225   12.2921   27.8255 N   0  0  0  0  0  0
   19.5392   11.1061   28.0521 C   0  0  0  0  0  0
   18.2552   12.5486   26.4904 C   0  0  0  0  0  0
   16.9774   11.7565   26.1201 C   0  0  2  0  0  0
   16.8492   11.9274   24.7279 O   0  0  0  0  0  0
   15.6470   12.2087   26.7870 C   0  0  1  0  0  0
   15.5278   13.6171   26.7279 O   0  0  0  0  0  0
   14.3495   11.5824   26.1858 C   0  0  2  0  0  0
   14.2161   11.9647   24.8289 O   0  0  0  0  0  0
   13.0845   12.0759   26.8926 C   0  0  0  0  0  0
   11.9432   11.3642   26.4439 O   0  0  0  0  0  0
   10.5785   12.2384   26.5529 P   0  0  0  0  0  0
    9.4163   11.2759   26.3882 O   0  0  0  0  0  0
   10.6131   13.2759   25.4486 O   0  5  0  0  0  0
   10.6131   12.8759   27.9279 O   0  5  0  0  0  0
   21.5001    8.0150   28.8287 H   0  0  0  0  0  0
   20.5485   14.2792   31.5541 H   0  0  0  0  0  0
   20.1046   16.4761   32.2597 H   0  0  0  0  0  0
   19.5273   17.6143   31.0478 H   0  0  0  0  0  0
   18.3802   16.8238   32.1409 H   0  0  0  0  0  0
   16.8223   17.1526   30.1622 H   0  0  0  0  0  0
   18.0530   17.7604   29.0452 H   0  0  0  0  0  0
   16.7027   16.8055   28.4379 H   0  0  0  0  0  0
   17.4298   14.7361   27.7410 H   0  0  0  0  0  0
   19.0131   12.2479   25.7767 H   0  0  0  0  0  0
   18.1394   13.6027   26.2536 H   0  0  0  0  0  0
   17.1135   10.6905   26.2980 H   0  0  0  0  0  0
   17.5814   11.5491   24.2565 H   0  0  0  0  0  0
   15.7030   11.9397   27.8429 H   0  0  0  0  0  0
   15.5067   13.8346   25.8055 H   0  0  0  0  0  0
   14.4110   10.4950   26.2459 H   0  0  0  0  0  0
   15.0792   11.8512   24.4343 H   0  0  0  0  0  0
   12.9691   13.1500   26.7292 H   0  0  0  0  0  0
   13.1695   11.9301   27.9681 H   0  0  0  0  0  0
  1  2  1  0  0  0
  1 18  2  0  0  0
  2  3  2  0  0  0
  2  4  1  0  0  0
  4  5  1  0  0  0
  4 32  1  0  0  0
  5  6  2  0  0  0
  5  7  1  0  0  0
  7  8  2  0  0  0
  7 18  1  0  0  0
  8  9  1  0  0  0
  9 10  2  0  0  0
  9 16  1  0  0  0
 10 11  1  0  0  0
 10 33  1  0  0  0
 11 12  1  0  0  0
 11 13  2  0  0  0
 12 34  1  0  0  0
 12 35  1  0  0  0
 12 36  1  0  0  0
 13 14  1  0  0  0
 13 15  1  0  0  0
 14 37  1  0  0  0
 14 38  1  0  0  0
 14 39  1  0  0  0
 15 16  2  0  0  0
 15 40  1  0  0  0
 16 17  1  0  0  0
 17 18  1  0  0  0
 17 19  1  0  0  0
 19 20  1  0  0  0
 19 41  1  0  0  0
 19 42  1  0  0  0
 20 21  1  0  0  0
 20 22  1  0  0  0
 20 43  1  0  0  0
 21 44  1  0  0  0
 22 23  1  0  0  0
 22 24  1  0  0  0
 22 45  1  0  0  0
 23 46  1  0  0  0
 24 25  1  0  0  0
 24 26  1  0  0  0
 24 47  1  0  0  0
 25 48  1  0  0  0
 26 27  1  0  0  0
 26 49  1  0  0  0
 26 50  1  0  0  0
 27 28  1  0  0  0
 28 29  2  0  0  0
 28 30  1  0  0  0
 28 31  1  0  0  0
M  CHG  2  30  -1  31  -1
M  END
> <i_epik_Tot_Q>
-2

> <i_epik_Tot_abs_Q>
2

> <i_f3d_flags>
0

> <i_i_glide_confnum>
80

> <i_i_glide_lignum>
3

> <i_i_glide_posenum>
321

> <i_i_glide_rotatable_bonds>
10

> <i_lp_mmshare_version>
65135

> <i_m_Source_File_Index>
1

> <i_m_source_file_index>
1

> <i_m_stars>
0

> <b_lp_Chiralities_Consistent>
1

> <b_m_subgroup_collapsed>
0

> <r_epik_Charging_Adjusted_Penalty>
0.232173

> <r_epik_Ionization_Penalty>
0.1164

> <r_epik_Ionization_Penalty_Charging>
0.1164

> <r_epik_Ionization_Penalty_Neutral>
0

> <r_epik_State_Penalty>
0.1158

> <r_i_docking_score>
-11.0818

> <r_i_glide_ecoul>
-54.3196

> <r_i_glide_eff_state_penalty>
0.1158

> <r_i_glide_einternal>
27.3065

> <r_i_glide_emodel>
-190.929

> <r_i_glide_energy>
-108.801

> <r_i_glide_erotb>
0.583689

> <r_i_glide_esite>
0

> <r_i_glide_evdw>
-54.481

> <r_i_glide_gscore>
-11.1976

> <r_i_glide_hbond>
-1.81924

> <r_i_glide_ligand_efficiency>
-0.357479

> <r_i_glide_ligand_efficiency_ln>
-2.4993

> <r_i_glide_ligand_efficiency_sa>
-1.12298

> <r_i_glide_lipo>
-1.04805

> <r_i_glide_metal>
0

> <r_i_glide_rewards>
-2.18998

> <r_lp_Energy>
43.2324

> <s_epik_cmdline>
J2VwaWtfcHl0aG9uJywgJy1waCcsICc3LjAnLCAnLXRuJywgJzgnLCAnLW1hJywgJzUwMCcsICctaW1hZScsICc8aW5maWxlLm1hZT4nLCAnLW9tYWUnLCAnPG91dGZpbGUubWFlPic=

> <s_epik_input>
Tz1jMVtuSF1jKD1PKW5jKGMxMiluKGMzYyhuMilbY0hdYyhbQ0gzXSljKFtDSDNdKVtjSF0zKVtDSDJdW0NASF0oW09IXSlbQ0BIXShbT0hdKVtDQEhdKFtPSF0pW0NIMl1PUCg9TykoW09IXSlbT0hd

> <s_i_glide_gridfile>
glide-grid_P0A3E0_MT_E57K

> <s_lp_Force_Field>
S-OPLS

> <s_lp_Variant>
FMN-3

> <s_m_Source_File>
glide-dock_SP_P0A3E0_MT_E57K_pv.maegz

> <s_m_Source_Path>
D:\project\glide-dock_SP_P0A3E0_MT_E57K

> <s_m_entry_id>
268

> <s_m_entry_name>
Structure247

> <s_m_job_name>
glide-dock_SP_P0A3E0_MT_E57K

> <s_m_source_file>
ligprep_FMN.maegz

> <s_m_subgroup_title>
glide-dock_SP_P0A3E0_MT_E57K_pv

> <s_m_subgroupid>
glide-dock_SP_P0A3E0_MT_E57K_pv

> <s_pdb_PDB_TITLE>
WT_2V5V_complex

> <s_pdb_PDB_format_version>
3.0

$$$$
