FMN
                    3D
 Schrodinger Suite 2024-1.
 50 52  0  0  1  0            999 V2000
   19.5002   10.1046   27.2266 N   0  0  0  0  0  0
   20.2172    8.9406   27.5316 C   0  0  0  0  0  0
   20.2172    7.9623   26.7903 O   0  0  0  0  0  0
   20.9222    8.8881   28.6879 N   0  0  0  0  0  0
   21.0179    9.8446   29.6342 C   0  0  0  0  0  0
   21.6667    9.6864   30.6688 O   0  0  0  0  0  0
   20.2736   11.1225   29.3420 C   0  0  0  0  0  0
   20.3068   12.1172   30.1474 N   0  0  0  0  0  0
   19.6640   13.3219   29.8159 C   0  0  0  0  0  0
   19.8024   14.4103   30.7005 C   0  0  0  0  0  0
   19.2003   15.6523   30.4229 C   0  0  0  0  0  0
   19.3517   16.7955   31.4108 C   0  0  0  0  0  0
   18.4734   15.8160   29.2230 C   0  0  0  0  0  0
   17.8427   17.1492   28.8604 C   0  0  0  0  0  0
   18.3358   14.7313   28.3339 C   0  0  0  0  0  0
   18.9159   13.4678   28.6140 C   0  0  0  0  0  0
   18.8360   12.3311   27.7659 N   0  0  0  0  0  0
   19.5105   11.1310   28.0307 C   0  0  0  0  0  0
   17.9858   12.4575   26.5668 C   0  0  0  0  0  0
   16.4971   12.0758   26.7945 C   0  0  1  0  0  0
   15.8602   13.1116   27.5084 O   0  0  0  0  0  0
   15.7431   11.9141   25.4477 C   0  0  2  0  0  0
   15.8201   13.1354   24.7263 O   0  0  0  0  0  0
   14.2848   11.3515   25.4796 C   0  0  2  0  0  0
   13.8693   11.2864   24.1244 O   0  0  0  0  0  0
   13.2096   12.1400   26.2720 C   0  0  0  0  0  0
   11.9997   11.3839   26.3521 O   0  0  0  0  0  0
   10.6168   12.2542   26.5023 P   0  0  0  0  0  0
   10.6172   13.2864   25.3959 O   0  0  0  0  0  0
   10.6173   12.8867   27.8825 O   0  5  0  0  0  0
    9.4604   11.2864   26.3334 O   0  5  0  0  0  0
   21.4159    8.0254   28.8818 H   0  0  0  0  0  0
   20.3855   14.2907   31.6002 H   0  0  0  0  0  0
   19.8980   16.4892   32.3035 H   0  0  0  0  0  0
   19.8945   17.6230   30.9539 H   0  0  0  0  0  0
   18.3727   17.1565   31.7281 H   0  0  0  0  0  0
   18.5769   17.9525   28.9207 H   0  0  0  0  0  0
   17.4502   17.1398   27.8429 H   0  0  0  0  0  0
   17.0175   17.3803   29.5318 H   0  0  0  0  0  0
   17.7695   14.9070   27.4349 H   0  0  0  0  0  0
   18.3810   11.7954   25.7961 H   0  0  0  0  0  0
   18.0858   13.4336   26.0961 H   0  0  0  0  0  0
   16.4327   11.1488   27.3668 H   0  0  0  0  0  0
   15.6898   13.8059   26.8874 H   0  0  0  0  0  0
   16.3255   11.1986   24.8637 H   0  0  0  0  0  0
   16.2173   12.9414   23.8802 H   0  0  0  0  0  0
   14.3261   10.3385   25.8797 H   0  0  0  0  0  0
   14.5580   10.8862   23.6150 H   0  0  0  0  0  0
   13.0659   13.1316   25.8432 H   0  0  0  0  0  0
   13.5228   12.2896   27.3035 H   0  0  0  0  0  0
  1  2  1  0  0  0
  1 18  2  0  0  0
  2  3  2  0  0  0
  2  4  1  0  0  0
  4  5  1  0  0  0
  4 32  1  0  0  0
  5  6  2  0  0  0
  5  7  1  0  0  0
  7  8  2  0  0  0
  7 18  1  0  0  0
  8  9  1  0  0  0
  9 10  2  0  0  0
  9 16  1  0  0  0
 10 11  1  0  0  0
 10 33  1  0  0  0
 11 12  1  0  0  0
 11 13  2  0  0  0
 12 34  1  0  0  0
 12 35  1  0  0  0
 12 36  1  0  0  0
 13 14  1  0  0  0
 13 15  1  0  0  0
 14 37  1  0  0  0
 14 38  1  0  0  0
 14 39  1  0  0  0
 15 16  2  0  0  0
 15 40  1  0  0  0
 16 17  1  0  0  0
 17 18  1  0  0  0
 17 19  1  0  0  0
 19 20  1  0  0  0
 19 41  1  0  0  0
 19 42  1  0  0  0
 20 21  1  0  0  0
 20 22  1  0  0  0
 20 43  1  0  0  0
 21 44  1  0  0  0
 22 23  1  0  0  0
 22 24  1  0  0  0
 22 45  1  0  0  0
 23 46  1  0  0  0
 24 25  1  0  0  0
 24 26  1  0  0  0
 24 47  1  0  0  0
 25 48  1  0  0  0
 26 27  1  0  0  0
 26 49  1  0  0  0
 26 50  1  0  0  0
 27 28  1  0  0  0
 28 29  2  0  0  0
 28 30  1  0  0  0
 28 31  1  0  0  0
M  CHG  2  30  -1  31  -1
M  END
> <i_epik_Tot_Q>
-2

> <i_epik_Tot_abs_Q>
2

> <i_f3d_flags>
0

> <i_i_glide_confnum>
87

> <i_i_glide_lignum>
2

> <i_i_glide_posenum>
397

> <i_i_glide_rotatable_bonds>
10

> <i_lp_mmshare_version>
65135

> <i_m_Source_File_Index>
1

> <i_m_source_file_index>
1

> <i_m_stars>
0

> <b_lp_Chiralities_Consistent>
1

> <b_m_subgroup_collapsed>
0

> <r_epik_Charging_Adjusted_Penalty>
0.232173

> <r_epik_Ionization_Penalty>
0.1164

> <r_epik_Ionization_Penalty_Charging>
0.1164

> <r_epik_Ionization_Penalty_Neutral>
0

> <r_epik_State_Penalty>
0.1158

> <r_i_docking_score>
-12.6797

> <r_i_glide_ecoul>
-51.4736

> <r_i_glide_eff_state_penalty>
0.1158

> <r_i_glide_einternal>
23.8164

> <r_i_glide_emodel>
-200.527

> <r_i_glide_energy>
-109.456

> <r_i_glide_erotb>
0.583689

> <r_i_glide_esite>
0

> <r_i_glide_evdw>
-57.9819

> <r_i_glide_gscore>
-12.7955

> <r_i_glide_hbond>
-2.01895

> <r_i_glide_ligand_efficiency>
-0.409022

> <r_i_glide_ligand_efficiency_ln>
-2.85966

> <r_i_glide_ligand_efficiency_sa>
-1.28489

> <r_i_glide_lipo>
-2.27759

> <r_i_glide_metal>
0

> <r_i_glide_rewards>
-2.18353

> <r_lp_Energy>
45.9765

> <s_epik_cmdline>
J2VwaWtfcHl0aG9uJywgJy1waCcsICc3LjAnLCAnLXRuJywgJzgnLCAnLW1hJywgJzUwMCcsICctaW1hZScsICc8aW5maWxlLm1hZT4nLCAnLW9tYWUnLCAnPG91dGZpbGUubWFlPic=

> <s_epik_input>
Tz1jMVtuSF1jKD1PKW5jKGMxMiluKGMzYyhuMilbY0hdYyhbQ0gzXSljKFtDSDNdKVtjSF0zKVtDSDJdW0NASF0oW09IXSlbQ0BIXShbT0hdKVtDQEhdKFtPSF0pW0NIMl1PUCg9TykoW09IXSlbT0hd

> <s_i_glide_gridfile>
glide-grid_P0A3E0_MT_E57W

> <s_lp_Force_Field>
S-OPLS

> <s_lp_Variant>
FMN-2

> <s_m_Source_File>
glide-dock_SP_P0A3E0_MT_E57W_pv.maegz

> <s_m_Source_Path>
D:\project\glide-dock_SP_P0A3E0_MT_E57W

> <s_m_entry_id>
282

> <s_m_entry_name>
Structure247

> <s_m_job_name>
glide-dock_SP_P0A3E0_MT_E57W

> <s_m_source_file>
ligprep_FMN.maegz

> <s_m_subgroup_title>
glide-dock_SP_P0A3E0_MT_E57W_pv

> <s_m_subgroupid>
glide-dock_SP_P0A3E0_MT_E57W_pv

> <s_pdb_PDB_TITLE>
WT_2V5V_complex

> <s_pdb_PDB_format_version>
3.0

$$$$
