lig26
                    3D
 Schrodinger Suite 2020-3.
 54 58  0  0  1  0            999 V2000
   10.2055   40.2950  -13.1523 C   0  0  0  0  0  0
   11.4932   39.4793  -12.9109 C   0  0  0  0  0  0
   11.2709   38.2328  -12.1695 N   0  0  0  0  0  0
   10.3989   38.2215  -11.1399 N   0  0  0  0  0  0
   10.3807   36.9961  -10.6590 C   0  0  0  0  0  0
    9.5846   36.6249   -9.4370 C   0  0  0  0  0  0
    8.6502   37.4957   -8.8575 C   0  0  0  0  0  0
    7.9792   37.0982   -7.6984 C   0  0  0  0  0  0
    8.2486   35.8483   -7.1398 C   0  0  0  0  0  0
    9.1852   35.0291   -7.7693 C   0  0  0  0  0  0
    9.8477   35.4013   -8.8974 N   0  0  0  0  0  0
   11.2004   36.1826  -11.4507 C   0  0  0  0  0  0
   11.8073   36.9801  -12.3890 C   0  0  0  0  0  0
   12.6485   36.5460  -13.3920 N   0  0  0  0  0  0
   13.8376   37.0661  -13.7697 C   0  0  0  0  0  0
   14.2477   38.1562  -13.3699 O   0  0  0  0  0  0
   14.6351   36.2192  -14.7622 C   0  0  0  0  0  0
   14.1109   34.9820  -15.0277 N   0  0  0  0  0  0
   14.7148   34.1682  -15.9228 C   0  0  0  0  0  0
   14.0345   32.8373  -16.1782 C   0  0  0  0  0  0
   14.8100   31.5455  -16.3035 C   0  0  0  0  0  0
   13.9232   31.7827  -15.1011 C   0  0  0  0  0  0
   15.9056   34.5106  -16.5512 C   0  0  0  0  0  0
   16.4839   35.7399  -16.2442 C   0  0  0  0  0  0
   15.8488   36.6419  -15.3747 C   0  0  0  0  0  0
   16.4206   37.8982  -15.0842 N   0  0  0  0  0  0
   17.4548   38.6898  -15.6180 C   0  0  0  0  0  0
   18.1059   38.4828  -16.8481 C   0  0  0  0  0  0
   19.0483   39.3324  -17.3364 N   0  0  0  0  0  0
   19.3306   40.4144  -16.5685 C   0  0  0  0  0  0
   18.7756   40.7150  -15.3665 N   0  0  0  0  0  0
   17.8442   39.8376  -14.9096 C   0  0  0  0  0  0
   10.4094   41.1729  -13.7668 H   0  0  0  0  0  0
    9.4516   39.7022  -13.6669 H   0  0  0  0  0  0
    9.7707   40.6487  -12.2177 H   0  0  0  0  0  0
   12.2178   40.0690  -12.3500 H   0  0  0  0  0  0
   11.9618   39.2418  -13.8627 H   0  0  0  0  0  0
    8.4509   38.4626   -9.2923 H   0  0  0  0  0  0
    7.2619   37.7565   -7.2315 H   0  0  0  0  0  0
    7.7431   35.5223   -6.2426 H   0  0  0  0  0  0
    9.4152   34.0519   -7.3668 H   0  0  0  0  0  0
   11.3601   35.1231  -11.3671 H   0  0  0  0  0  0
   12.3644   35.7067  -13.8730 H   0  0  0  0  0  0
   13.1624   32.9341  -16.8277 H   0  0  0  0  0  0
   14.4985   30.8215  -17.0596 H   0  0  0  0  0  0
   15.8935   31.5620  -16.1712 H   0  0  0  0  0  0
   14.3743   31.9769  -14.1272 H   0  0  0  0  0  0
   13.0078   31.1990  -15.0154 H   0  0  0  0  0  0
   16.3947   33.8298  -17.2312 H   0  0  0  0  0  0
   17.4478   35.9407  -16.6693 H   0  0  0  0  0  0
   15.9183   38.3528  -14.3283 H   0  0  0  0  0  0
   17.8362   37.6958  -17.5335 H   0  0  0  0  0  0
   20.0089   41.1352  -16.9972 H   0  0  0  0  0  0
   17.3903   40.0834  -13.9596 H   0  0  0  0  0  0
  1  2  1  0  0  0
  1 33  1  0  0  0
  1 34  1  0  0  0
  1 35  1  0  0  0
  2  3  1  0  0  0
  2 36  1  0  0  0
  2 37  1  0  0  0
  3 13  1  0  0  0
  3  4  1  0  0  0
  4  5  2  0  0  0
  5  6  1  0  0  0
  5 12  1  0  0  0
  6 11  1  0  0  0
  6  7  2  0  0  0
  7  8  1  0  0  0
  7 38  1  0  0  0
  8  9  2  0  0  0
  8 39  1  0  0  0
  9 10  1  0  0  0
  9 40  1  0  0  0
 10 11  2  0  0  0
 10 41  1  0  0  0
 12 13  2  0  0  0
 12 42  1  0  0  0
 13 14  1  0  0  0
 14 15  1  0  0  0
 14 43  1  0  0  0
 15 16  2  0  0  0
 15 17  1  0  0  0
 17 25  1  0  0  0
 17 18  2  0  0  0
 18 19  1  0  0  0
 19 20  1  0  0  0
 19 23  2  0  0  0
 20 22  1  0  0  0
 20 21  1  0  0  0
 20 44  1  0  0  0
 21 22  1  0  0  0
 21 45  1  0  0  0
 21 46  1  0  0  0
 22 47  1  0  0  0
 22 48  1  0  0  0
 23 24  1  0  0  0
 23 49  1  0  0  0
 24 25  2  0  0  0
 24 50  1  0  0  0
 25 26  1  0  0  0
 26 27  1  0  0  0
 26 51  1  0  0  0
 27 32  1  0  0  0
 27 28  2  0  0  0
 28 29  1  0  0  0
 28 52  1  0  0  0
 29 30  2  0  0  0
 30 31  1  0  0  0
 30 53  1  0  0  0
 31 32  2  0  0  0
 32 54  1  0  0  0
M  END
> <s_m_source_file>
/home/user-home/yujie/0_PBCNetv2/data/0_0_high_sim/0_noncov/Sries39080/ligprep_input.csv

> <i_m_source_file_index>
27

> <i_lp_mmshare_version>
51139

> <i_f3d_flags>
0

> <s_epik_input>
bjFbY0hdW2NIXVtjSF1bY0hdYzEtYyhubjJbQ0gyXVtDSDNdKVtjSF1jMltOSF1DKD1PKWMzbmMoW0NIXTRbQ0gyXVtDSDJdNClbY0hdW2NIXWMzW05IXWM1W2NIXW5bY0hdbltjSF01

> <s_epik_cmdline>
J2VwaWtfcHl0aG9uJywgJy1waHQnLCAnMi4wJywgJy1waCcsICc3LjQnLCAnLXRuJywgJzgnLCAnLW1hJywgJzIwMCcsICctaW1hZScsICc8aW5maWxlLm1hZT4nLCAnLW9tYWUnLCAnPG91dGZpbGUubWFlPic=

> <r_lp_tautomer_probability>
1

> <r_epik_Ionization_Penalty>
  0.0009

> <r_epik_Ionization_Penalty_Charging>
  0.0000

> <r_epik_Ionization_Penalty_Neutral>
  0.0009

> <r_epik_State_Penalty>
  0.0006

> <r_epik_Charging_Adjusted_Penalty>
0.000574688

> <i_epik_Tot_Q>
0

> <i_epik_Tot_abs_Q>
0

> <s_lp_Force_Field>
OPLS3e

> <r_lp_Energy>
56.9581

> <b_lp_Chiralities_Consistent>
1

> <s_lp_Variant>
lig26-1

> <s_i_glide_gridfile>
Sries39080-001-gridgen

> <i_i_glide_lignum>
29

> <i_i_glide_rotatable_bonds>
8

> <r_i_docking_score>
-8.13116620547751

> <r_i_glide_ligand_efficiency>
-0.254098943921172

> <r_i_glide_ligand_efficiency_sa>
-0.806713860837002

> <r_i_glide_ligand_efficiency_ln>
-1.82078976062597

> <r_i_glide_gscore>
-8.13174089347751

> <r_i_glide_lipo>
-4.95871987813404

> <r_i_glide_hbond>
-0.32

> <r_i_glide_metal>
-0

> <r_i_glide_rewards>
-0.609277094090097

> <r_i_glide_evdw>
-53.6390571594238

> <r_i_glide_ecoul>
-2.04633593559265

> <r_i_glide_erotb>
0.763827063526818

> <r_i_glide_esite>
-0.0186677364700963

> <r_i_glide_emodel>
-78.7745086475509

> <r_i_glide_energy>
-55.6853930950165

> <r_i_glide_einternal>
3.94867587089539

> <i_i_glide_confnum>
70

> <i_i_glide_posenum>
368

> <r_i_glide_eff_state_penalty>
0.000574688

$$$$
