lig25
                    3D
 Schrodinger Suite 2024-1.
 61 66  0  0  1  0            999 V2000
   13.4529   35.2198  -13.3080 O   0  0  0  0  0  0
   13.6951   36.3824  -13.6356 C   0  0  0  0  0  0
   13.0122   37.4473  -13.1632 N   0  0  0  0  0  0
   11.9519   37.4230  -12.2650 C   0  0  0  0  0  0
   11.4624   36.4737  -11.3710 C   0  0  0  0  0  0
   10.4297   37.1027  -10.6418 C   0  0  0  0  0  0
    9.6410   36.6104   -9.4547 C   0  0  0  0  0  0
    8.6483   37.3873   -8.8363 C   0  0  0  0  0  0
    8.0145   36.8991   -7.6908 C   0  0  0  0  0  0
    8.3755   35.6499   -7.1841 C   0  0  0  0  0  0
    9.3592   34.9237   -7.8536 C   0  0  0  0  0  0
    9.9807   35.3847   -8.9695 N   0  0  0  0  0  0
   10.2398   38.3197  -11.1053 N   0  0  0  0  0  0
   11.1310   38.5130  -12.0909 N   0  0  0  0  0  0
   11.2666   39.8366  -12.7211 C   0  0  0  0  0  0
   10.0264   40.7212  -12.8928 C   0  0  0  0  0  0
    8.7320   40.1931  -12.9669 C   0  0  0  0  0  0
    7.6432   41.0333  -13.1831 C   0  0  0  0  0  0
    7.8440   42.4035  -13.3260 C   0  0  0  0  0  0
    9.1252   42.9410  -13.2512 C   0  0  0  0  0  0
   10.2147   42.0993  -13.0392 C   0  0  0  0  0  0
   14.8006   36.6898  -14.6390 C   0  0  0  0  0  0
   15.3458   37.9414  -14.5697 N   0  0  0  0  0  0
   16.3522   38.2741  -15.4151 C   0  0  0  0  0  0
   16.9192   39.6748  -15.2787 C   0  0  0  0  0  0
   17.2263   40.3043  -13.9361 C   0  0  0  0  0  0
   18.3545   39.9155  -14.8675 C   0  0  0  0  0  0
   16.8459   37.3983  -16.3776 C   0  0  0  0  0  0
   16.2781   36.1308  -16.4718 C   0  0  0  0  0  0
   15.2551   35.7438  -15.5944 C   0  0  0  0  0  0
   14.6323   34.4899  -15.7261 N   0  0  0  0  0  0
   14.9467   33.3069  -16.4009 C   0  0  0  0  0  0
   16.2508   32.9204  -16.7315 C   0  0  0  0  0  0
   16.5269   31.7560  -17.3698 N   0  0  0  0  0  0
   15.4560   30.9820  -17.6799 C   0  0  0  0  0  0
   14.1590   31.2410  -17.3767 N   0  0  0  0  0  0
   13.9237   32.4079  -16.7236 C   0  0  0  0  0  0
   13.2630   38.3437  -13.5511 H   0  0  0  0  0  0
   11.8516   35.4778  -11.2163 H   0  0  0  0  0  0
    8.3803   38.3593   -9.2228 H   0  0  0  0  0  0
    7.2522   37.4847   -7.1977 H   0  0  0  0  0  0
    7.8992   35.2513   -6.2984 H   0  0  0  0  0  0
    9.6632   33.9510   -7.4932 H   0  0  0  0  0  0
   12.0290   40.3719  -12.1524 H   0  0  0  0  0  0
   11.6677   39.6882  -13.7254 H   0  0  0  0  0  0
    8.5563   39.1305  -12.8890 H   0  0  0  0  0  0
    6.6475   40.6211  -13.2573 H   0  0  0  0  0  0
    6.9976   43.0525  -13.4984 H   0  0  0  0  0  0
    9.2738   44.0050  -13.3620 H   0  0  0  0  0  0
   11.2072   42.5228  -12.9945 H   0  0  0  0  0  0
   16.5233   40.3563  -16.0342 H   0  0  0  0  0  0
   16.9907   41.3592  -13.7943 H   0  0  0  0  0  0
   17.0659   39.7199  -13.0285 H   0  0  0  0  0  0
   18.9777   39.0546  -14.6185 H   0  0  0  0  0  0
   18.9143   40.6943  -15.3862 H   0  0  0  0  0  0
   17.6362   37.6981  -17.0508 H   0  0  0  0  0  0
   16.6241   35.4755  -17.2547 H   0  0  0  0  0  0
   13.7874   34.4295  -15.1742 H   0  0  0  0  0  0
   17.1038   33.5135  -16.4428 H   0  0  0  0  0  0
   15.6588   30.0532  -18.1918 H   0  0  0  0  0  0
   12.8864   32.6160  -16.4824 H   0  0  0  0  0  0
  1  2  2  0  0  0
  2  3  1  0  0  0
  2 22  1  0  0  0
  3  4  1  0  0  0
  3 38  1  0  0  0
  4 14  1  0  0  0
  4  5  2  0  0  0
  5  6  1  0  0  0
  5 39  1  0  0  0
  6  7  1  0  0  0
  6 13  2  0  0  0
  7 12  1  0  0  0
  7  8  2  0  0  0
  8  9  1  0  0  0
  8 40  1  0  0  0
  9 10  2  0  0  0
  9 41  1  0  0  0
 10 11  1  0  0  0
 10 42  1  0  0  0
 11 12  2  0  0  0
 11 43  1  0  0  0
 13 14  1  0  0  0
 14 15  1  0  0  0
 15 16  1  0  0  0
 15 44  1  0  0  0
 15 45  1  0  0  0
 16 21  1  0  0  0
 16 17  2  0  0  0
 17 18  1  0  0  0
 17 46  1  0  0  0
 18 19  2  0  0  0
 18 47  1  0  0  0
 19 20  1  0  0  0
 19 48  1  0  0  0
 20 21  2  0  0  0
 20 49  1  0  0  0
 21 50  1  0  0  0
 22 30  1  0  0  0
 22 23  2  0  0  0
 23 24  1  0  0  0
 24 25  1  0  0  0
 24 28  2  0  0  0
 25 27  1  0  0  0
 25 26  1  0  0  0
 25 51  1  0  0  0
 26 27  1  0  0  0
 26 52  1  0  0  0
 26 53  1  0  0  0
 27 54  1  0  0  0
 27 55  1  0  0  0
 28 29  1  0  0  0
 28 56  1  0  0  0
 29 30  2  0  0  0
 29 57  1  0  0  0
 30 31  1  0  0  0
 31 32  1  0  0  0
 31 58  1  0  0  0
 32 37  1  0  0  0
 32 33  2  0  0  0
 33 34  1  0  0  0
 33 59  1  0  0  0
 34 35  2  0  0  0
 35 36  1  0  0  0
 35 60  1  0  0  0
 36 37  2  0  0  0
 37 61  1  0  0  0
M  END
> <Tot Q>
0

> <Source File Index>
1

> <i_f3d_flags>
0

> <subgroup collapsed>
0

> <Ionization Penalty>
0.0009

> <State Penalty>
0.0006

> <docking score>
-11.1898

> <glide emodel>
-112.855

> <glide gscore>
-11.1903

> <tautomer probability>
1

> <Source File>
Sries39080_dock_SP_confgen_100_lib.maegz

> <Source Path>
C:\Users\yujie\Desktop\two_s\data

> <entry id>
35318

> <subgroup title>
Sries39080_dock_SP_confgen_100_lib

> <subgroupid>
Sries39080_dock_SP_confgen_100_lib

$$$$
