lig7
                    3D
 Schrodinger Suite 2024-1.
 55 59  0  0  1  0            999 V2000
   13.2969   35.3823  -12.9697 O   0  0  0  0  0  0
   13.4198   36.5014  -13.4655 C   0  0  0  0  0  0
   12.6223   37.5456  -13.1503 N   0  0  0  0  0  0
   11.6186   37.5299  -12.1842 C   0  0  0  0  0  0
   11.2350   36.5965  -11.2263 C   0  0  0  0  0  0
   10.1856   37.1719  -10.4874 C   0  0  0  0  0  0
    9.4691   36.6273   -9.2807 C   0  0  0  0  0  0
    8.5063   37.3625   -8.5722 C   0  0  0  0  0  0
    7.9258   36.8018   -7.4308 C   0  0  0  0  0  0
    8.3108   35.5256   -7.0180 C   0  0  0  0  0  0
    9.2718   34.8496   -7.7695 C   0  0  0  0  0  0
    9.8483   35.3827   -8.8785 N   0  0  0  0  0  0
    9.8878   38.3549  -10.9821 N   0  0  0  0  0  0
   10.7632   38.5902  -11.9771 N   0  0  0  0  0  0
   10.7077   39.8649  -12.7061 C   0  0  0  0  0  0
    9.2650   40.3641  -12.9264 C   0  0  0  0  0  0
    9.2646   41.4953  -13.7695 O   0  0  0  0  0  0
   14.4959   36.7338  -14.5115 C   0  0  0  0  0  0
   14.7189   35.6528  -15.3132 N   0  0  0  0  0  0
   15.7082   35.6980  -16.2373 C   0  0  0  0  0  0
   15.8828   34.4722  -17.1222 C   0  0  0  0  0  0
   16.8679   33.3749  -16.7884 C   0  0  0  0  0  0
   15.3831   33.0944  -16.7368 C   0  0  0  0  0  0
   16.5363   36.8064  -16.3832 C   0  0  0  0  0  0
   16.3150   37.9130  -15.5635 C   0  0  0  0  0  0
   15.2682   37.9194  -14.6262 C   0  0  0  0  0  0
   15.0496   39.0202  -13.7697 N   0  0  0  0  0  0
   15.5643   40.3238  -13.6812 C   0  0  0  0  0  0
   16.1732   41.0301  -14.7287 C   0  0  0  0  0  0
   16.6482   42.2956  -14.5816 N   0  0  0  0  0  0
   16.4874   42.8562  -13.3565 C   0  0  0  0  0  0
   15.8957   42.2765  -12.2818 N   0  0  0  0  0  0
   15.4383   41.0109  -12.4672 C   0  0  0  0  0  0
   12.7004   38.3729  -13.7225 H   0  0  0  0  0  0
   11.6871   35.6320  -11.0531 H   0  0  0  0  0  0
    8.2160   38.3523   -8.8917 H   0  0  0  0  0  0
    7.1816   37.3504   -6.8723 H   0  0  0  0  0  0
    7.8733   35.0709   -6.1395 H   0  0  0  0  0  0
    9.5972   33.8606   -7.4792 H   0  0  0  0  0  0
   11.2579   40.5775  -12.0912 H   0  0  0  0  0  0
   11.2190   39.7323  -13.6590 H   0  0  0  0  0  0
    8.6583   39.5749  -13.3679 H   0  0  0  0  0  0
    8.7715   40.5840  -11.9779 H   0  0  0  0  0  0
    8.3590   41.7946  -13.8851 H   0  0  0  0  0  0
   15.7861   34.7137  -18.1818 H   0  0  0  0  0  0
   17.4484   32.9235  -17.5917 H   0  0  0  0  0  0
   17.4351   33.4523  -15.8587 H   0  0  0  0  0  0
   14.9073   32.9492  -15.7664 H   0  0  0  0  0  0
   14.9292   32.4747  -17.5108 H   0  0  0  0  0  0
   17.3411   36.8060  -17.1042 H   0  0  0  0  0  0
   17.0043   38.7337  -15.6509 H   0  0  0  0  0  0
   14.4814   38.7778  -12.9708 H   0  0  0  0  0  0
   16.2454   40.6323  -15.7272 H   0  0  0  0  0  0
   16.8566   43.8629  -13.2262 H   0  0  0  0  0  0
   14.9721   40.5502  -11.6075 H   0  0  0  0  0  0
  1  2  2  0  0  0
  2  3  1  0  0  0
  2 18  1  0  0  0
  3  4  1  0  0  0
  3 34  1  0  0  0
  4 14  1  0  0  0
  4  5  2  0  0  0
  5  6  1  0  0  0
  5 35  1  0  0  0
  6  7  1  0  0  0
  6 13  2  0  0  0
  7 12  1  0  0  0
  7  8  2  0  0  0
  8  9  1  0  0  0
  8 36  1  0  0  0
  9 10  2  0  0  0
  9 37  1  0  0  0
 10 11  1  0  0  0
 10 38  1  0  0  0
 11 12  2  0  0  0
 11 39  1  0  0  0
 13 14  1  0  0  0
 14 15  1  0  0  0
 15 16  1  0  0  0
 15 40  1  0  0  0
 15 41  1  0  0  0
 16 17  1  0  0  0
 16 42  1  0  0  0
 16 43  1  0  0  0
 17 44  1  0  0  0
 18 26  1  0  0  0
 18 19  2  0  0  0
 19 20  1  0  0  0
 20 21  1  0  0  0
 20 24  2  0  0  0
 21 23  1  0  0  0
 21 22  1  0  0  0
 21 45  1  0  0  0
 22 23  1  0  0  0
 22 46  1  0  0  0
 22 47  1  0  0  0
 23 48  1  0  0  0
 23 49  1  0  0  0
 24 25  1  0  0  0
 24 50  1  0  0  0
 25 26  2  0  0  0
 25 51  1  0  0  0
 26 27  1  0  0  0
 27 28  1  0  0  0
 27 52  1  0  0  0
 28 33  1  0  0  0
 28 29  2  0  0  0
 29 30  1  0  0  0
 29 53  1  0  0  0
 30 31  2  0  0  0
 31 32  1  0  0  0
 31 54  1  0  0  0
 32 33  2  0  0  0
 33 55  1  0  0  0
M  END
> <Tot Q>
0

> <Source File Index>
27

> <i_f3d_flags>
0

> <subgroup collapsed>
0

> <Ionization Penalty>
0.0009

> <State Penalty>
0.0006

> <docking score>
-9.31155

> <glide emodel>
-96.5147

> <glide gscore>
-9.31212

> <tautomer probability>
1

> <Source File>
Sries39080_dock_SP_confgen_100_lib.maegz

> <Source Path>
C:\Users\yujie\Desktop\two_s\data

> <entry id>
35344

> <subgroup title>
Sries39080_dock_SP_confgen_100_lib

> <subgroupid>
Sries39080_dock_SP_confgen_100_lib

$$$$
