lig24
                    3D
 Schrodinger Suite 2023-4.
 60 64  0  0  1  0            999 V2000
    9.0020   41.3343  -10.6597 C   0  0  0  0  0  0
    8.8814   40.7402  -12.0788 C   0  0  0  0  0  0
    7.4935   40.1163  -12.3365 C   0  0  0  0  0  0
   10.0685   39.8138  -12.4801 C   0  0  0  0  0  0
   10.2796   38.5790  -11.7046 N   0  0  0  0  0  0
    9.4452   38.2065  -10.7186 N   0  0  0  0  0  0
    9.9377   37.0988  -10.1973 C   0  0  0  0  0  0
    9.3208   36.4669   -8.9812 C   0  0  0  0  0  0
    8.2595   37.0593   -8.2773 C   0  0  0  0  0  0
    7.7283   36.3950   -7.1671 C   0  0  0  0  0  0
    8.2609   35.1639   -6.7810 C   0  0  0  0  0  0
    9.3178   34.6376   -7.5207 C   0  0  0  0  0  0
    9.8502   35.2743   -8.5945 N   0  0  0  0  0  0
   11.0676   36.6874  -10.9298 C   0  0  0  0  0  0
   11.3378   37.7085  -11.8261 C   0  0  0  0  0  0
   12.4013   37.9273  -12.6880 N   0  0  0  0  0  0
   13.0519   36.9610  -13.3725 C   0  0  0  0  0  0
   12.6939   35.7828  -13.3438 O   0  0  0  0  0  0
   14.2661   37.3932  -14.1976 C   0  0  0  0  0  0
   14.6164   38.7104  -14.0876 N   0  0  0  0  0  0
   15.7289   39.1643  -14.7129 C   0  0  0  0  0  0
   16.0721   40.6294  -14.5072 C   0  0  0  0  0  0
   15.7500   41.3846  -13.2322 C   0  0  0  0  0  0
   17.1862   41.0521  -13.5768 C   0  0  0  0  0  0
   16.5414   38.3392  -15.4845 C   0  0  0  0  0  0
   16.1830   37.0014  -15.6259 C   0  0  0  0  0  0
   15.0267   36.5008  -15.0079 C   0  0  0  0  0  0
   14.6360   35.1548  -15.1648 N   0  0  0  0  0  0
   14.9001   34.1001  -16.0592 C   0  0  0  0  0  0
   14.2923   32.8603  -15.8086 C   0  0  0  0  0  0
   14.4474   31.7759  -16.6119 N   0  0  0  0  0  0
   15.2381   31.9556  -17.6982 C   0  0  0  0  0  0
   15.8593   33.1093  -18.0511 N   0  0  0  0  0  0
   15.6803   34.1730  -17.2240 C   0  0  0  0  0  0
    8.8293   40.6021   -9.8743 H   0  0  0  0  0  0
    9.9910   41.7630  -10.4936 H   0  0  0  0  0  0
    8.2775   42.1317  -10.5106 H   0  0  0  0  0  0
    8.9430   41.5917  -12.7590 H   0  0  0  0  0  0
    7.2835   39.2615  -11.6939 H   0  0  0  0  0  0
    6.7038   40.8482  -12.1664 H   0  0  0  0  0  0
    7.4020   39.7771  -13.3687 H   0  0  0  0  0  0
   10.9984   40.3859  -12.4469 H   0  0  0  0  0  0
    9.9342   39.5063  -13.5176 H   0  0  0  0  0  0
    7.8440   38.0073   -8.5871 H   0  0  0  0  0  0
    6.9057   36.8256   -6.6134 H   0  0  0  0  0  0
    7.8589   34.6267   -5.9336 H   0  0  0  0  0  0
    9.7623   33.6933   -7.2442 H   0  0  0  0  0  0
   11.6757   35.8116  -10.7567 H   0  0  0  0  0  0
   12.6650   38.8825  -12.8733 H   0  0  0  0  0  0
   15.9674   41.2112  -15.4248 H   0  0  0  0  0  0
   15.4092   42.4180  -13.3084 H   0  0  0  0  0  0
   15.2748   40.8550  -12.4065 H   0  0  0  0  0  0
   17.7027   40.2847  -12.9898 H   0  0  0  0  0  0
   17.8584   41.8447  -13.9060 H   0  0  0  0  0  0
   17.4375   38.7238  -15.9519 H   0  0  0  0  0  0
   16.8506   36.3640  -16.1776 H   0  0  0  0  0  0
   13.8964   34.9385  -14.5062 H   0  0  0  0  0  0
   13.6568   32.7099  -14.9495 H   0  0  0  0  0  0
   15.3643   31.1069  -18.3554 H   0  0  0  0  0  0
   16.1314   35.0862  -17.5683 H   0  0  0  0  0  0
  1  2  1  0  0  0
  1 35  1  0  0  0
  1 36  1  0  0  0
  1 37  1  0  0  0
  2  3  1  0  0  0
  2  4  1  0  0  0
  2 38  1  0  0  0
  3 39  1  0  0  0
  3 40  1  0  0  0
  3 41  1  0  0  0
  4  5  1  0  0  0
  4 42  1  0  0  0
  4 43  1  0  0  0
  5 15  1  0  0  0
  5  6  1  0  0  0
  6  7  2  0  0  0
  7  8  1  0  0  0
  7 14  1  0  0  0
  8 13  1  0  0  0
  8  9  2  0  0  0
  9 10  1  0  0  0
  9 44  1  0  0  0
 10 11  2  0  0  0
 10 45  1  0  0  0
 11 12  1  0  0  0
 11 46  1  0  0  0
 12 13  2  0  0  0
 12 47  1  0  0  0
 14 15  2  0  0  0
 14 48  1  0  0  0
 15 16  1  0  0  0
 16 17  1  0  0  0
 16 49  1  0  0  0
 17 18  2  0  0  0
 17 19  1  0  0  0
 19 27  1  0  0  0
 19 20  2  0  0  0
 20 21  1  0  0  0
 21 22  1  0  0  0
 21 25  2  0  0  0
 22 24  1  0  0  0
 22 23  1  0  0  0
 22 50  1  0  0  0
 23 24  1  0  0  0
 23 51  1  0  0  0
 23 52  1  0  0  0
 24 53  1  0  0  0
 24 54  1  0  0  0
 25 26  1  0  0  0
 25 55  1  0  0  0
 26 27  2  0  0  0
 26 56  1  0  0  0
 27 28  1  0  0  0
 28 29  1  0  0  0
 28 57  1  0  0  0
 29 34  1  0  0  0
 29 30  2  0  0  0
 30 31  1  0  0  0
 30 58  1  0  0  0
 31 32  2  0  0  0
 32 33  1  0  0  0
 32 59  1  0  0  0
 33 34  2  0  0  0
 34 60  1  0  0  0
M  END
> <i_epik_Tot_Q>
0

> <i_epik_Tot_abs_Q>
0

> <i_i_glide_confnum>
14

> <i_i_glide_lignum>
27

> <i_i_glide_posenum>
327

> <i_i_glide_rotatable_bonds>
9

> <i_lp_mmshare_version>
51139

> <i_m_source_file_index>
25

> <i_f3d_flags>
0

> <b_lp_Chiralities_Consistent>
1

> <r_epik_Charging_Adjusted_Penalty>
0.000574688

> <r_epik_Ionization_Penalty>
0.0009

> <r_epik_Ionization_Penalty_Charging>
0

> <r_epik_Ionization_Penalty_Neutral>
0.0009

> <r_epik_State_Penalty>
0.0006

> <r_i_docking_score>
-9.3285

> <r_i_glide_ecoul>
-2.46376

> <r_i_glide_eff_state_penalty>
0.000574688

> <r_i_glide_einternal>
7.15569

> <r_i_glide_emodel>
-87.0226

> <r_i_glide_energy>
-60.0102

> <r_i_glide_erotb>
0.777631

> <r_i_glide_esite>
0

> <r_i_glide_evdw>
-57.5464

> <r_i_glide_gscore>
-9.32907

> <r_i_glide_hbond>
-0.410709

> <r_i_glide_ligand_efficiency>
-0.274368

> <r_i_glide_ligand_efficiency_ln>
-2.06093

> <r_i_glide_ligand_efficiency_sa>
-0.888845

> <r_i_glide_lipo>
-4.75254

> <r_i_glide_metal>
-0

> <r_i_glide_rewards>
-1.69658

> <r_lp_Energy>
55.124

> <r_lp_tautomer_probability>
1

> <s_epik_cmdline>
J2VwaWtfcHl0aG9uJywgJy1waHQnLCAnMi4wJywgJy1waCcsICc3LjQnLCAnLXRuJywgJzgnLCAnLW1hJywgJzIwMCcsICctaW1hZScsICc8aW5maWxlLm1hZT4nLCAnLW9tYWUnLCAnPG91dGZpbGUubWFlPic=

> <s_epik_input>
bjFbY0hdW2NIXVtjSF1bY0hdYzEtYyhubjJbQ0gyXVtDSF0oW0NIM10pW0NIM10pW2NIXWMyW05IXUMoPU8pYzNuYyhbQ0hdNFtDSDJdW0NIMl00KVtjSF1bY0hdYzNbTkhdYzVbY0hdbltjSF1uW2NIXTU=

> <s_i_glide_gridfile>
Sries39080-001-gridgen

> <s_lp_Force_Field>
OPLS3e

> <s_lp_Variant>
lig24-1

> <s_m_source_file>
/home/user-home/yujie/0_PBCNetv2/data/0_0_high_sim/0_noncov/Sries39080/ligprep_input.csv

$$$$
