lig17
                    3D
 Schrodinger Suite 2023-4.
 62 67  0  0  1  0            999 V2000
   13.0484   35.4036  -13.2444 O   0  0  0  0  0  0
   13.3040   36.5884  -13.4967 C   0  0  0  0  0  0
   12.6188   37.6287  -12.9699 N   0  0  0  0  0  0
   11.5848   37.5625  -12.0522 C   0  0  0  0  0  0
   11.2427   36.6252  -11.0914 C   0  0  0  0  0  0
   10.1540   37.1643  -10.3824 C   0  0  0  0  0  0
    9.4481   36.6166   -9.1777 C   0  0  0  0  0  0
    8.4474   37.3242   -8.4928 C   0  0  0  0  0  0
    7.8467   36.7391   -7.3741 C   0  0  0  0  0  0
    8.2472   35.4660   -6.9683 C   0  0  0  0  0  0
    9.2473   34.8203   -7.6948 C   0  0  0  0  0  0
    9.8483   35.3823   -8.7749 N   0  0  0  0  0  0
    9.7898   38.3110  -10.9182 N   0  0  0  0  0  0
   10.6485   38.5637  -11.9216 N   0  0  0  0  0  0
   10.5132   39.7825  -12.7542 C   0  0  0  0  0  0
    9.1210   40.4581  -12.6082 C   0  0  0  0  0  0
    9.0786   41.7953  -13.3680 C   0  0  0  0  0  0
   10.1333   42.6414  -12.9116 O   0  0  0  0  0  0
   11.4406   42.1180  -13.1387 C   0  0  0  0  0  0
   11.6225   40.7901  -12.3757 C   0  0  0  0  0  0
   14.4350   36.9703  -14.4552 C   0  0  0  0  0  0
   14.8094   38.2850  -14.4361 N   0  0  0  0  0  0
   15.8645   38.6952  -15.1806 C   0  0  0  0  0  0
   16.2328   40.1659  -15.0991 C   0  0  0  0  0  0
   15.9208   41.0322  -13.8940 C   0  0  0  0  0  0
   17.3504   40.6529  -14.2092 C   0  0  0  0  0  0
   16.6041   37.8212  -15.9709 C   0  0  0  0  0  0
   16.2114   36.4865  -16.0209 C   0  0  0  0  0  0
   15.0949   36.0374  -15.2992 C   0  0  0  0  0  0
   14.6474   34.7060  -15.3764 N   0  0  0  0  0  0
   14.8495   33.6005  -16.2139 C   0  0  0  0  0  0
   15.5700   33.5973  -17.4144 C   0  0  0  0  0  0
   15.7328   32.4797  -18.1696 N   0  0  0  0  0  0
   15.1175   31.3598  -17.7210 C   0  0  0  0  0  0
   14.3642   31.2601  -16.5997 N   0  0  0  0  0  0
   14.2486   32.3891  -15.8575 C   0  0  0  0  0  0
   12.8263   38.5382  -13.3485 H   0  0  0  0  0  0
   11.7580   35.6985  -10.8894 H   0  0  0  0  0  0
    8.1373   38.3087   -8.8172 H   0  0  0  0  0  0
    7.0761   37.2643   -6.8294 H   0  0  0  0  0  0
    7.7947   34.9911   -6.1100 H   0  0  0  0  0  0
    9.5868   33.8356   -7.4058 H   0  0  0  0  0  0
   10.6419   39.4114  -13.7692 H   0  0  0  0  0  0
    8.3582   39.8054  -13.0349 H   0  0  0  0  0  0
    8.8431   40.6059  -11.5637 H   0  0  0  0  0  0
    9.1496   41.6364  -14.4448 H   0  0  0  0  0  0
    8.1259   42.2960  -13.1901 H   0  0  0  0  0  0
   11.6110   41.9808  -14.2089 H   0  0  0  0  0  0
   12.1750   42.8499  -12.7979 H   0  0  0  0  0  0
   11.6668   40.9446  -11.2999 H   0  0  0  0  0  0
   12.5971   40.3928  -12.6596 H   0  0  0  0  0  0
   16.1362   40.6696  -16.0631 H   0  0  0  0  0  0
   15.5877   42.0561  -14.0653 H   0  0  0  0  0  0
   15.4361   40.5854  -13.0235 H   0  0  0  0  0  0
   17.8611   39.9273  -13.5730 H   0  0  0  0  0  0
   18.0301   41.4142  -14.5972 H   0  0  0  0  0  0
   17.4634   38.1653  -16.5308 H   0  0  0  0  0  0
   16.8236   35.8175  -16.5980 H   0  0  0  0  0  0
   13.9638   34.5320  -14.6496 H   0  0  0  0  0  0
   15.9931   34.4876  -17.8442 H   0  0  0  0  0  0
   15.2340   30.4616  -18.3121 H   0  0  0  0  0  0
   13.6531   32.2982  -14.9602 H   0  0  0  0  0  0
  1  2  2  0  0  0
  2  3  1  0  0  0
  2 21  1  0  0  0
  3  4  1  0  0  0
  3 37  1  0  0  0
  4 14  1  0  0  0
  4  5  2  0  0  0
  5  6  1  0  0  0
  5 38  1  0  0  0
  6  7  1  0  0  0
  6 13  2  0  0  0
  7 12  1  0  0  0
  7  8  2  0  0  0
  8  9  1  0  0  0
  8 39  1  0  0  0
  9 10  2  0  0  0
  9 40  1  0  0  0
 10 11  1  0  0  0
 10 41  1  0  0  0
 11 12  2  0  0  0
 11 42  1  0  0  0
 13 14  1  0  0  0
 14 15  1  0  0  0
 15 20  1  0  0  0
 15 16  1  0  0  0
 15 43  1  0  0  0
 16 17  1  0  0  0
 16 44  1  0  0  0
 16 45  1  0  0  0
 17 18  1  0  0  0
 17 46  1  0  0  0
 17 47  1  0  0  0
 18 19  1  0  0  0
 19 20  1  0  0  0
 19 48  1  0  0  0
 19 49  1  0  0  0
 20 50  1  0  0  0
 20 51  1  0  0  0
 21 29  1  0  0  0
 21 22  2  0  0  0
 22 23  1  0  0  0
 23 24  1  0  0  0
 23 27  2  0  0  0
 24 26  1  0  0  0
 24 25  1  0  0  0
 24 52  1  0  0  0
 25 26  1  0  0  0
 25 53  1  0  0  0
 25 54  1  0  0  0
 26 55  1  0  0  0
 26 56  1  0  0  0
 27 28  1  0  0  0
 27 57  1  0  0  0
 28 29  2  0  0  0
 28 58  1  0  0  0
 29 30  1  0  0  0
 30 31  1  0  0  0
 30 59  1  0  0  0
 31 36  1  0  0  0
 31 32  2  0  0  0
 32 33  1  0  0  0
 32 60  1  0  0  0
 33 34  2  0  0  0
 34 35  1  0  0  0
 34 61  1  0  0  0
 35 36  2  0  0  0
 36 62  1  0  0  0
M  END
> <i_epik_Tot_Q>
0

> <i_epik_Tot_abs_Q>
0

> <i_i_glide_confnum>
164

> <i_i_glide_lignum>
20

> <i_i_glide_posenum>
176

> <i_i_glide_rotatable_bonds>
8

> <i_lp_mmshare_version>
51139

> <i_m_source_file_index>
18

> <i_f3d_flags>
0

> <b_lp_Chiralities_Consistent>
1

> <r_epik_Charging_Adjusted_Penalty>
0.000574688

> <r_epik_Ionization_Penalty>
0.0009

> <r_epik_Ionization_Penalty_Charging>
0

> <r_epik_Ionization_Penalty_Neutral>
0.0009

> <r_epik_State_Penalty>
0.0006

> <r_i_docking_score>
-10.4171

> <r_i_glide_ecoul>
-3.87655

> <r_i_glide_eff_state_penalty>
0.000574688

> <r_i_glide_einternal>
2.70876

> <r_i_glide_emodel>
-105.538

> <r_i_glide_energy>
-66.4982

> <r_i_glide_erotb>
0.697271

> <r_i_glide_esite>
0

> <r_i_glide_evdw>
-62.6217

> <r_i_glide_gscore>
-10.4177

> <r_i_glide_hbond>
-0.493256

> <r_i_glide_ligand_efficiency>
-0.289365

> <r_i_glide_ligand_efficiency_ln>
-2.27274

> <r_i_glide_ligand_efficiency_sa>
-0.955461

> <r_i_glide_lipo>
-5.26101

> <r_i_glide_metal>
-0

> <r_i_glide_rewards>
-1.64815

> <r_lp_Energy>
48.1745

> <r_lp_tautomer_probability>
1

> <s_epik_cmdline>
J2VwaWtfcHl0aG9uJywgJy1waHQnLCAnMi4wJywgJy1waCcsICc3LjQnLCAnLXRuJywgJzgnLCAnLW1hJywgJzIwMCcsICctaW1hZScsICc8aW5maWxlLm1hZT4nLCAnLW9tYWUnLCAnPG91dGZpbGUubWFlPic=

> <s_epik_input>
W0NIMl0xW0NIMl1PW0NIMl1bQ0gyXVtDSF0xbjJuYygtYzNbY0hdW2NIXVtjSF1bY0hdbjMpW2NIXWMyW05IXUMoPU8pYzRuYyhbQ0hdNVtDSDJdW0NIMl01KVtjSF1bY0hdYzRbTkhdYzZbY0hdbltjSF1uW2NIXTY=

> <s_i_glide_gridfile>
Sries39080-001-gridgen

> <s_lp_Force_Field>
OPLS3e

> <s_lp_Variant>
lig17-1

> <s_m_source_file>
/home/user-home/yujie/0_PBCNetv2/data/0_0_high_sim/0_noncov/Sries39080/ligprep_input.csv

$$$$
