lig20
                    3D
 Schrodinger Suite 2024-1.
 57 61  0  0  1  0            999 V2000
   14.4391   40.1599  -12.0212 C   0  0  0  0  0  0
   13.1426   40.6414  -12.6854 C   0  0  0  0  0  0
   12.4365   39.5761  -13.5524 C   0  0  0  0  0  0
   12.0796   38.3755  -12.7896 N   0  0  0  0  0  0
   11.1642   38.4935  -11.8145 N   0  0  0  0  0  0
   11.0048   37.2911  -11.3000 C   0  0  0  0  0  0
   10.0680   37.0594  -10.1464 C   0  0  0  0  0  0
    9.1266   38.0199   -9.7448 C   0  0  0  0  0  0
    8.3460   37.7753   -8.6136 C   0  0  0  0  0  0
    8.5124   36.5821   -7.9099 C   0  0  0  0  0  0
    9.4488   35.6597   -8.3775 C   0  0  0  0  0  0
   10.2167   35.8808   -9.4772 N   0  0  0  0  0  0
   11.8302   36.3705  -11.9683 C   0  0  0  0  0  0
   12.4937   37.0739  -12.9686 C   0  0  0  0  0  0
   13.3572   36.6882  -13.9864 N   0  0  0  0  0  0
   13.9770   35.4913  -14.0860 C   0  0  0  0  0  0
   13.8592   34.5857  -13.2562 O   0  0  0  0  0  0
   14.7963   35.2720  -15.3439 C   0  0  0  0  0  0
   14.6509   34.0236  -15.8809 N   0  0  0  0  0  0
   15.2938   33.7178  -17.0373 C   0  0  0  0  0  0
   15.1579   32.2968  -17.5704 C   0  0  0  0  0  0
   15.9904   31.1676  -17.0117 C   0  0  0  0  0  0
   14.4911   31.1747  -16.8014 C   0  0  0  0  0  0
   16.0667   34.6479  -17.7240 C   0  0  0  0  0  0
   16.2262   35.9156  -17.1737 C   0  0  0  0  0  0
   15.6261   36.2506  -15.9481 C   0  0  0  0  0  0
   15.8260   37.5307  -15.3866 N   0  0  0  0  0  0
   16.7365   38.5513  -15.7091 C   0  0  0  0  0  0
   16.3825   39.8909  -15.5046 C   0  0  0  0  0  0
   17.1971   40.9271  -15.8401 N   0  0  0  0  0  0
   18.4032   40.5904  -16.3686 C   0  0  0  0  0  0
   18.8684   39.3297  -16.5691 N   0  0  0  0  0  0
   18.0222   38.3222  -16.2259 C   0  0  0  0  0  0
   14.8838   40.9476  -11.4130 H   0  0  0  0  0  0
   14.2481   39.3085  -11.3680 H   0  0  0  0  0  0
   15.1778   39.8556  -12.7625 H   0  0  0  0  0  0
   13.3674   41.5122  -13.3044 H   0  0  0  0  0  0
   12.4582   40.9977  -11.9133 H   0  0  0  0  0  0
   13.0773   39.2851  -14.3834 H   0  0  0  0  0  0
   11.5249   39.9870  -13.9854 H   0  0  0  0  0  0
    9.0193   38.9501  -10.2841 H   0  0  0  0  0  0
    7.6245   38.5081   -8.2818 H   0  0  0  0  0  0
    7.9186   36.3709   -7.0327 H   0  0  0  0  0  0
    9.5948   34.7198   -7.8637 H   0  0  0  0  0  0
   11.9035   35.3127  -11.7691 H   0  0  0  0  0  0
   13.4192   37.3067  -14.7811 H   0  0  0  0  0  0
   15.0164   32.2694  -18.6509 H   0  0  0  0  0  0
   16.4207   30.4383  -17.7002 H   0  0  0  0  0  0
   16.6501   31.3835  -16.1694 H   0  0  0  0  0  0
   14.0927   31.3781  -15.8053 H   0  0  0  0  0  0
   13.8765   30.4568  -17.3466 H   0  0  0  0  0  0
   16.5402   34.3983  -18.6609 H   0  0  0  0  0  0
   16.8128   36.6317  -17.7273 H   0  0  0  0  0  0
   15.2422   37.7402  -14.5909 H   0  0  0  0  0  0
   15.4155   40.1588  -15.1036 H   0  0  0  0  0  0
   19.0473   41.4018  -16.6767 H   0  0  0  0  0  0
   18.4046   37.3205  -16.3623 H   0  0  0  0  0  0
  1  2  1  0  0  0
  1 34  1  0  0  0
  1 35  1  0  0  0
  1 36  1  0  0  0
  2  3  1  0  0  0
  2 37  1  0  0  0
  2 38  1  0  0  0
  3  4  1  0  0  0
  3 39  1  0  0  0
  3 40  1  0  0  0
  4 14  1  0  0  0
  4  5  1  0  0  0
  5  6  2  0  0  0
  6  7  1  0  0  0
  6 13  1  0  0  0
  7 12  1  0  0  0
  7  8  2  0  0  0
  8  9  1  0  0  0
  8 41  1  0  0  0
  9 10  2  0  0  0
  9 42  1  0  0  0
 10 11  1  0  0  0
 10 43  1  0  0  0
 11 12  2  0  0  0
 11 44  1  0  0  0
 13 14  2  0  0  0
 13 45  1  0  0  0
 14 15  1  0  0  0
 15 16  1  0  0  0
 15 46  1  0  0  0
 16 17  2  0  0  0
 16 18  1  0  0  0
 18 26  1  0  0  0
 18 19  2  0  0  0
 19 20  1  0  0  0
 20 21  1  0  0  0
 20 24  2  0  0  0
 21 23  1  0  0  0
 21 22  1  0  0  0
 21 47  1  0  0  0
 22 23  1  0  0  0
 22 48  1  0  0  0
 22 49  1  0  0  0
 23 50  1  0  0  0
 23 51  1  0  0  0
 24 25  1  0  0  0
 24 52  1  0  0  0
 25 26  2  0  0  0
 25 53  1  0  0  0
 26 27  1  0  0  0
 27 28  1  0  0  0
 27 54  1  0  0  0
 28 33  1  0  0  0
 28 29  2  0  0  0
 29 30  1  0  0  0
 29 55  1  0  0  0
 30 31  2  0  0  0
 31 32  1  0  0  0
 31 56  1  0  0  0
 32 33  2  0  0  0
 33 57  1  0  0  0
M  END
> <Tot Q>
0

> <Source File Index>
29

> <i_f3d_flags>
0

> <subgroup collapsed>
0

> <Ionization Penalty>
0.0009

> <State Penalty>
0.0006

> <docking score>
-9.25895

> <glide emodel>
-92.4189

> <glide gscore>
-9.25953

> <tautomer probability>
1

> <Source File>
Sries39080_dock_SP_confgen_100_lib.maegz

> <Source Path>
C:\Users\yujie\Desktop\two_s\data

> <entry id>
35346

> <subgroup title>
a

> <subgroupid>
Sries39080_dock_SP_confgen_100_lib

$$$$
