lig13
                    3D
 Schrodinger Suite 2020-3.
 45 47  0  0  1  0            999 V2000
   10.9750   16.5177   13.0007 C   0  0  0  0  0  0
   12.4445   16.4264   13.0286 N   0  0  2  0  0  0
   13.3892   16.2312   11.5615 S   0  0  0  0  0  0
   12.7094   15.2724   10.6853 O   0  0  0  0  0  0
   14.7725   15.9981   11.9871 O   0  0  0  0  0  0
   13.3925   17.8024   10.6987 C   0  0  0  0  0  0
   14.3094   17.9481    9.6630 C   0  0  0  0  0  0
   14.4652   19.1727    9.0287 C   0  0  0  0  0  0
   13.6835   20.2563    9.4135 C   0  0  0  0  0  0
   12.6753   20.1094   10.3754 C   0  0  0  0  0  0
   11.7638   21.1322   10.7048 N   0  0  0  0  0  0
   11.4798   22.3882   10.1395 C   0  0  0  0  0  0
   10.3959   23.1111   10.6476 C   0  0  0  0  0  0
   10.1270   24.3648   10.0834 C   0  0  0  0  0  0
    9.0796   25.1977   10.4954 N   0  0  0  0  0  0
    7.9272   25.0020   11.2740 C   0  0  0  0  0  0
    7.3336   26.1360   11.8297 C   0  0  0  0  0  0
    6.1301   26.0344   12.5223 C   0  0  0  0  0  0
    5.5133   24.7917   12.6628 C   0  0  0  0  0  0
    4.1709   24.6891   13.3622 C   0  0  0  0  0  0
    6.1063   23.6502   12.1209 C   0  0  0  0  0  0
    7.3112   23.7546   11.4286 C   0  0  0  0  0  0
   10.9078   24.8828    9.1024 N   0  0  0  0  0  0
   11.9292   24.1115    8.6615 C   0  0  0  0  0  0
   12.2421   22.8809    9.1265 N   0  0  0  0  0  0
   12.5517   18.8750   11.0285 C   0  0  0  0  0  0
   10.6211   16.4274   11.9750 H   0  0  0  0  0  0
   10.5501   15.7144   13.6015 H   0  0  0  0  0  0
   10.6486   17.4833   13.3864 H   0  0  0  0  0  0
   12.9351   16.7805   13.8539 H   0  0  0  0  0  0
   14.9351   17.1175    9.3749 H   0  0  0  0  0  0
   15.2046   19.2877    8.2500 H   0  0  0  0  0  0
   13.8656   21.1812    8.8973 H   0  0  0  0  0  0
   11.1225   20.8866   11.4423 H   0  0  0  0  0  0
    9.8146   22.7289   11.4708 H   0  0  0  0  0  0
    9.2120   26.1556   10.2079 H   0  0  0  0  0  0
    7.7811   27.1104   11.7010 H   0  0  0  0  0  0
    5.6639   26.9265   12.9175 H   0  0  0  0  0  0
    3.5099   24.0278   12.8024 H   0  0  0  0  0  0
    3.6700   25.6572   13.4214 H   0  0  0  0  0  0
    4.2884   24.2805   14.3658 H   0  0  0  0  0  0
    5.6190   22.6896   12.2091 H   0  0  0  0  0  0
    7.7188   22.8696   10.9672 H   0  0  0  0  0  0
   12.5513   24.5132    7.8730 H   0  0  0  0  0  0
   11.8084   18.7621   11.8010 H   0  0  0  0  0  0
  1  2  1  0  0  0
  1 27  1  0  0  0
  1 28  1  0  0  0
  1 29  1  0  0  0
  2  3  1  0  0  0
  2 30  1  0  0  0
  3  4  2  0  0  0
  3  5  2  0  0  0
  3  6  1  0  0  0
  6 26  1  0  0  0
  6  7  2  0  0  0
  7  8  1  0  0  0
  7 31  1  0  0  0
  8  9  2  0  0  0
  8 32  1  0  0  0
  9 10  1  0  0  0
  9 33  1  0  0  0
 10 11  1  0  0  0
 10 26  2  0  0  0
 11 12  1  0  0  0
 11 34  1  0  0  0
 12 25  1  0  0  0
 12 13  2  0  0  0
 13 14  1  0  0  0
 13 35  1  0  0  0
 14 15  1  0  0  0
 14 23  2  0  0  0
 15 16  1  0  0  0
 15 36  1  0  0  0
 16 22  1  0  0  0
 16 17  2  0  0  0
 17 18  1  0  0  0
 17 37  1  0  0  0
 18 19  2  0  0  0
 18 38  1  0  0  0
 19 20  1  0  0  0
 19 21  1  0  0  0
 20 39  1  0  0  0
 20 40  1  0  0  0
 20 41  1  0  0  0
 21 22  2  0  0  0
 21 42  1  0  0  0
 22 43  1  0  0  0
 23 24  1  0  0  0
 24 25  2  0  0  0
 24 44  1  0  0  0
 26 45  1  0  0  0
M  END
> <s_m_source_file>
/home/user-home/yujie/0_PBCNetv2/data/0_0_high_sim/0_noncov/Sries46192/ligprep_input.csv

> <i_m_source_file_index>
14

> <i_lp_mmshare_version>
51139

> <i_f3d_flags>
0

> <s_epik_input>
W0NIM11bTkhdUyg9TykoPU8pYzFbY0hdW2NIXVtjSF1jKFtjSF0xKVtOSF1jMltjSF1jKG5bY0hdbjIpW05IXWMzW2NIXVtjSF1jKFtDSDNdKVtjSF1bY0hdMw==

> <s_epik_cmdline>
J2VwaWtfcHl0aG9uJywgJy1waHQnLCAnMi4wJywgJy1waCcsICc3LjQnLCAnLXRuJywgJzgnLCAnLW1hJywgJzIwMCcsICctaW1hZScsICc8aW5maWxlLm1hZT4nLCAnLW9tYWUnLCAnPG91dGZpbGUubWFlPic=

> <r_lp_tautomer_probability>
1

> <r_epik_Ionization_Penalty>
  0.0001

> <r_epik_Ionization_Penalty_Charging>
  0.0000

> <r_epik_Ionization_Penalty_Neutral>
  0.0001

> <r_epik_State_Penalty>
 -0.0000

> <r_epik_Charging_Adjusted_Penalty>
0

> <i_epik_Tot_Q>
0

> <i_epik_Tot_abs_Q>
0

> <s_lp_Force_Field>
OPLS3e

> <r_lp_Energy>
31.5582

> <b_lp_Chiralities_Consistent>
1

> <s_lp_Variant>
lig13-1

> <s_i_glide_gridfile>
Sries38428-001-gridgen

> <i_i_glide_lignum>
16

> <i_i_glide_rotatable_bonds>
6

> <r_i_docking_score>
-4.54616069051987

> <r_i_glide_ligand_efficiency>
-0.174852334250764

> <r_i_glide_ligand_efficiency_sa>
-0.517999352207177

> <r_i_glide_ligand_efficiency_ln>
-1.06765092099867

> <r_i_glide_gscore>
-4.54616069051987

> <r_i_glide_lipo>
-2.2643328914104

> <r_i_glide_hbond>
0

> <r_i_glide_metal>
-0

> <r_i_glide_rewards>
-0.0610602629940395

> <r_i_glide_evdw>
-42.4401931762695

> <r_i_glide_ecoul>
-5.28347253799438

> <r_i_glide_erotb>
0.706331189396969

> <r_i_glide_esite>
-0.012568185999762

> <r_i_glide_emodel>
-54.734741796764

> <r_i_glide_energy>
-47.7236657142639

> <r_i_glide_einternal>
6.11382341384888

> <i_i_glide_confnum>
190

> <i_i_glide_posenum>
46

> <r_i_glide_eff_state_penalty>
-0

$$$$
