Gefitinib
                    3D
 Schrodinger Suite 2024-1.
 56 59  0  0  1  0            999 V2000
  -50.5981    1.3919  -17.7605 C   0  0  0  0  0  0
  -49.7836    0.5660  -18.5649 C   0  0  0  0  0  0
  -50.0756    0.4343  -19.9479 C   0  0  0  0  0  0
  -51.1619    1.1370  -20.5233 C   0  0  0  0  0  0
  -51.9705    1.9768  -19.7177 C   0  0  0  0  0  0
  -51.6773    2.0876  -18.3489 C   0  0  0  0  0  0
  -53.0084    2.6602  -20.2421 N   0  0  0  0  0  0
  -53.2675    2.4900  -21.5364 C   0  0  0  0  0  0
  -52.5572    1.7582  -22.3874 N   0  0  0  0  0  0
  -51.5049    1.0689  -21.8979 C   0  0  0  0  0  0
  -51.1388    2.2314  -15.5729 C   0  0  0  0  0  0
  -50.2856    1.4726  -16.4184 O   0  0  0  0  0  0
  -50.7896    0.2604  -22.7955 N   0  0  0  0  0  0
  -50.8403    0.2858  -24.1975 C   0  0  0  0  0  0
  -50.8544    1.5045  -24.9170 C   0  0  0  0  0  0
  -50.8755    1.5010  -26.3258 C   0  0  0  0  0  0
  -50.8836    0.2774  -27.0211 C   0  0  0  0  0  0
  -50.8750   -0.9393  -26.3131 C   0  0  0  0  0  0
  -50.8404   -0.9352  -24.9055 C   0  0  0  0  0  0
  -50.8754    0.2703  -28.3738 F   0  0  0  0  0  0
  -50.8754    2.9916  -27.2018 Cl  0  0  0  0  0  0
  -48.7360   -0.0574  -17.9162 O   0  0  0  0  0  0
  -47.8149   -0.8666  -18.6344 C   0  0  0  0  0  0
  -48.3096   -2.3221  -18.7302 C   0  0  0  0  0  0
  -48.5026   -3.0470  -17.3720 C   0  0  0  0  0  0
  -47.3108   -3.7393  -16.8048 N   0  3  0  0  0  0
  -46.2779   -2.8618  -16.2078 C   0  0  0  0  0  0
  -45.2387   -3.7151  -15.4589 C   0  0  0  0  0  0
  -44.6658   -4.6535  -16.3633 O   0  0  0  0  0  0
  -45.6361   -5.5607  -16.8753 C   0  0  0  0  0  0
  -46.6982   -4.7762  -17.6699 C   0  0  0  0  0  0
  -49.4722   -0.1985  -20.5778 H   0  0  0  0  0  0
  -52.3268    2.7120  -17.7574 H   0  0  0  0  0  0
  -54.0886    3.0544  -21.9491 H   0  0  0  0  0  0
  -50.7937    2.1506  -14.5424 H   0  0  0  0  0  0
  -51.1289    3.2882  -15.8429 H   0  0  0  0  0  0
  -52.1638    1.8607  -15.6049 H   0  0  0  0  0  0
  -50.3085   -0.5250  -22.3860 H   0  0  0  0  0  0
  -50.8396    2.4488  -24.3926 H   0  0  0  0  0  0
  -50.8841   -1.8801  -26.8461 H   0  0  0  0  0  0
  -50.8291   -1.8803  -24.3795 H   0  0  0  0  0  0
  -46.8752   -0.8209  -18.0924 H   0  0  0  0  0  0
  -47.5822   -0.4545  -19.6163 H   0  0  0  0  0  0
  -47.6590   -2.8882  -19.3945 H   0  0  0  0  0  0
  -49.2747   -2.3065  -19.2366 H   0  0  0  0  0  0
  -49.2619   -3.8163  -17.5105 H   0  0  0  0  0  0
  -48.9180   -2.3647  -16.6295 H   0  0  0  0  0  0
  -46.7395   -2.1475  -15.5254 H   0  0  0  0  0  0
  -45.7681   -2.2966  -16.9862 H   0  0  0  0  0  0
  -44.4466   -3.0774  -15.0656 H   0  0  0  0  0  0
  -45.6801   -4.2318  -14.6055 H   0  0  0  0  0  0
  -45.1364   -6.2764  -17.5284 H   0  0  0  0  0  0
  -46.0752   -6.1371  -16.0603 H   0  0  0  0  0  0
  -46.2251   -4.3201  -18.5394 H   0  0  0  0  0  0
  -47.4676   -5.4584  -18.0342 H   0  0  0  0  0  0
  -47.6752   -4.2919  -16.0182 H   0  0  0  0  0  0
  1  2  2  0  0  0
  1  6  1  0  0  0
  1 12  1  0  0  0
  2  3  1  0  0  0
  2 22  1  0  0  0
  3  4  2  0  0  0
  3 32  1  0  0  0
  4  5  1  0  0  0
  4 10  1  0  0  0
  5  6  2  0  0  0
  5  7  1  0  0  0
  6 33  1  0  0  0
  7  8  2  0  0  0
  8  9  1  0  0  0
  8 34  1  0  0  0
  9 10  2  0  0  0
 10 13  1  0  0  0
 11 12  1  0  0  0
 11 35  1  0  0  0
 11 36  1  0  0  0
 11 37  1  0  0  0
 13 14  1  0  0  0
 13 38  1  0  0  0
 14 15  2  0  0  0
 14 19  1  0  0  0
 15 16  1  0  0  0
 15 39  1  0  0  0
 16 17  2  0  0  0
 16 21  1  0  0  0
 17 18  1  0  0  0
 17 20  1  0  0  0
 18 19  2  0  0  0
 18 40  1  0  0  0
 19 41  1  0  0  0
 22 23  1  0  0  0
 23 24  1  0  0  0
 23 42  1  0  0  0
 23 43  1  0  0  0
 24 25  1  0  0  0
 24 44  1  0  0  0
 24 45  1  0  0  0
 25 26  1  0  0  0
 25 46  1  0  0  0
 25 47  1  0  0  0
 26 27  1  0  0  0
 26 31  1  0  0  0
 26 56  1  0  0  0
 27 28  1  0  0  0
 27 48  1  0  0  0
 27 49  1  0  0  0
 28 29  1  0  0  0
 28 50  1  0  0  0
 28 51  1  0  0  0
 29 30  1  0  0  0
 30 31  1  0  0  0
 30 52  1  0  0  0
 30 53  1  0  0  0
 31 54  1  0  0  0
 31 55  1  0  0  0
M  CHG  1  26   1
M  END
> <Tot Q>
1

> <flags>
0

> <Source File Index>
2

> <stars>
0

> <subgroup collapsed>
0

> <prepared>
1

> <Ionization Penalty>
0.416

> <State Penalty>
0.4147

> <Potential Energy-S-OPLS>
-915.57

> <docking score>
-8.26024

> <glide emodel>
-86.404

> <glide gscore>
-8.67494

> <tautomer probability>
0.999978

> <Source File>
glide-dock_SP_EGFR_MT_G719S_2ITO_pv.maegz

> <Source Path>
C:\Users\yujie\Desktop\res\docking\EGFR (P00533)\glide-dock_SP_EGFR_MT_G719S_2ITO

> <entry id>
237

> <subgroup title>
glide-dock_SP_EGFR_MT_G719S_2ITO_pv

> <subgroupid>
glide-dock_SP_EGFR_MT_G719S_2ITO_pv

$$$$
