Gefitinib
                    3D
 Schrodinger Suite 2024-1.
 55 58  0  0  1  0            999 V2000
   10.0547  -16.4144    8.3970 C   0  0  0  0  0  0
   10.5685  -16.4245    9.7092 C   0  0  0  0  0  0
   10.0077  -15.5438   10.6649 C   0  0  0  0  0  0
    8.9556  -14.6670   10.3104 C   0  0  0  0  0  0
    8.4561  -14.6483    8.9811 C   0  0  0  0  0  0
    9.0210  -15.5288    8.0416 C   0  0  0  0  0  0
    7.4662  -13.8023    8.6221 N   0  0  0  0  0  0
    6.9840  -12.9983    9.5653 C   0  0  0  0  0  0
    7.3543  -12.9546   10.8398 N   0  0  0  0  0  0
    8.3464  -13.7764   11.2286 C   0  0  0  0  0  0
   10.2163  -18.5326    7.3950 C   0  0  0  0  0  0
   10.6277  -17.1847    7.4210 O   0  0  0  0  0  0
    8.7725  -13.6796   12.5634 N   0  0  0  0  0  0
    8.0590  -13.1788   13.6642 C   0  0  0  0  0  0
    6.6550  -13.3200   13.7813 C   0  0  0  0  0  0
    5.9704  -12.8135   14.9009 C   0  0  0  0  0  0
    6.6901  -12.1702   15.9249 C   0  0  0  0  0  0
    8.0866  -12.0270   15.8205 C   0  0  0  0  0  0
    8.7703  -12.5442   14.7025 C   0  0  0  0  0  0
    6.0461  -11.6961   17.0193 F   0  0  0  0  0  0
    4.2571  -12.9995   15.0214 Cl  0  0  0  0  0  0
   11.6054  -17.2952    9.9677 O   0  0  0  0  0  0
   12.3715  -17.1289   11.1530 C   0  0  0  0  0  0
   11.7831  -17.9374   12.3237 C   0  0  0  0  0  0
   12.2184  -17.4799   13.7319 C   0  0  0  0  0  0
   13.5800  -17.8299   14.1492 N   0  0  0  0  0  0
   14.5982  -16.9449   13.5749 C   0  0  0  0  0  0
   16.0168  -17.2930   14.0593 C   0  0  0  0  0  0
   16.0643  -17.2265   15.4792 O   0  0  0  0  0  0
   15.1323  -18.1187   16.0814 C   0  0  0  0  0  0
   13.7063  -17.7849   15.6048 C   0  0  0  0  0  0
   10.3716  -15.5454   11.6798 H   0  0  0  0  0  0
    8.6681  -15.5097    7.0207 H   0  0  0  0  0  0
    6.2040  -12.3159    9.2652 H   0  0  0  0  0  0
   10.5560  -18.9986    6.4699 H   0  0  0  0  0  0
   10.6497  -19.0952    8.2207 H   0  0  0  0  0  0
    9.1295  -18.5987    7.4221 H   0  0  0  0  0  0
    9.7232  -13.9635   12.7416 H   0  0  0  0  0  0
    6.0892  -13.8303   13.0201 H   0  0  0  0  0  0
    8.6416  -11.5309   16.6039 H   0  0  0  0  0  0
    9.8441  -12.4302   14.6488 H   0  0  0  0  0  0
   12.5116  -16.0767   11.4004 H   0  0  0  0  0  0
   13.3597  -17.5175   10.9114 H   0  0  0  0  0  0
   11.9976  -18.9982   12.1857 H   0  0  0  0  0  0
   10.6960  -17.8569   12.2833 H   0  0  0  0  0  0
   11.5200  -17.9533   14.4231 H   0  0  0  0  0  0
   12.0500  -16.4070   13.8481 H   0  0  0  0  0  0
   14.3784  -15.9083   13.8298 H   0  0  0  0  0  0
   14.6014  -17.0022   12.4929 H   0  0  0  0  0  0
   16.3044  -18.2877   13.7203 H   0  0  0  0  0  0
   16.7446  -16.5978   13.6418 H   0  0  0  0  0  0
   15.3926  -19.1457   15.8207 H   0  0  0  0  0  0
   15.2007  -18.0325   17.1661 H   0  0  0  0  0  0
   13.0093  -18.4921   16.0565 H   0  0  0  0  0  0
   13.4285  -16.7949   15.9703 H   0  0  0  0  0  0
  1  2  2  0  0  0
  1  6  1  0  0  0
  1 12  1  0  0  0
  2  3  1  0  0  0
  2 22  1  0  0  0
  3  4  2  0  0  0
  3 32  1  0  0  0
  4  5  1  0  0  0
  4 10  1  0  0  0
  5  6  2  0  0  0
  5  7  1  0  0  0
  6 33  1  0  0  0
  7  8  2  0  0  0
  8  9  1  0  0  0
  8 34  1  0  0  0
  9 10  2  0  0  0
 10 13  1  0  0  0
 11 12  1  0  0  0
 11 35  1  0  0  0
 11 36  1  0  0  0
 11 37  1  0  0  0
 13 14  1  0  0  0
 13 38  1  0  0  0
 14 15  2  0  0  0
 14 19  1  0  0  0
 15 16  1  0  0  0
 15 39  1  0  0  0
 16 17  2  0  0  0
 16 21  1  0  0  0
 17 18  1  0  0  0
 17 20  1  0  0  0
 18 19  2  0  0  0
 18 40  1  0  0  0
 19 41  1  0  0  0
 22 23  1  0  0  0
 23 24  1  0  0  0
 23 42  1  0  0  0
 23 43  1  0  0  0
 24 25  1  0  0  0
 24 44  1  0  0  0
 24 45  1  0  0  0
 25 26  1  0  0  0
 25 46  1  0  0  0
 25 47  1  0  0  0
 26 27  1  0  0  0
 26 31  1  0  0  0
 27 28  1  0  0  0
 27 48  1  0  0  0
 27 49  1  0  0  0
 28 29  1  0  0  0
 28 50  1  0  0  0
 28 51  1  0  0  0
 29 30  1  0  0  0
 30 31  1  0  0  0
 30 52  1  0  0  0
 30 53  1  0  0  0
 31 54  1  0  0  0
 31 55  1  0  0  0
M  END
> <Tot Q>
0

> <flags>
0

> <Source File Index>
5

> <stars>
0

> <subgroup collapsed>
0

> <prepared>
1

> <Ionization Penalty>
0.408

> <State Penalty>
0.4067

> <Potential Energy-S-OPLS>
-915.57

> <docking score>
-8.96437

> <glide emodel>
-81.5445

> <glide gscore>
-9.37107

> <tautomer probability>
0.999978

> <Source File>
glide-dock_SP_EGFR_MT_L858R_T790M_4I22_pv.maegz

> <Source Path>
C:\Users\yujie\Desktop\res\docking\EGFR (P00533)\glide-dock_SP_EGFR_MT_L858R_T790M_4I22

> <entry id>
333

> <subgroup title>
glide-dock_SP_EGFR_MT_L858R_T790M_4I22_pv

> <subgroupid>
glide-dock_SP_EGFR_MT_L858R_T790M_4I22_pv

$$$$
