Gefitinib
                    3D
 Schrodinger Suite 2024-1.
 56 59  0  0  1  0            999 V2000
   -0.1298  194.9954   17.8584 C   0  0  0  0  0  0
    0.6415  194.2408   18.7735 C   0  0  0  0  0  0
    0.7198  194.6175   20.1225 C   0  0  0  0  0  0
    0.0499  195.7707   20.5748 C   0  0  0  0  0  0
   -0.7078  196.5591   19.6703 C   0  0  0  0  0  0
   -0.7815  196.1649   18.3197 C   0  0  0  0  0  0
   -1.3575  197.6620   20.0933 N   0  0  0  0  0  0
   -1.2424  197.9806   21.3826 C   0  0  0  0  0  0
   -0.5593  197.3130   22.3088 N   0  0  0  0  0  0
    0.0851  196.1942   21.9232 C   0  0  0  0  0  0
   -1.0381  195.2158   15.6376 C   0  0  0  0  0  0
   -0.2167  194.5234   16.5641 O   0  0  0  0  0  0
    0.8267  195.4983   22.8922 N   0  0  0  0  0  0
    0.7630  195.6529   24.2835 C   0  0  0  0  0  0
   -0.4753  195.7938   24.9496 C   0  0  0  0  0  0
   -0.5138  195.9873   26.3424 C   0  0  0  0  0  0
    0.6835  196.0197   27.0791 C   0  0  0  0  0  0
    1.9198  195.8453   26.4285 C   0  0  0  0  0  0
    1.9588  195.6547   25.0327 C   0  0  0  0  0  0
    0.6414  196.1935   28.4174 F   0  0  0  0  0  0
   -2.0282  196.1935   27.1418 Cl  0  0  0  0  0  0
    1.2928  193.0998   18.3943 O   0  0  0  0  0  0
    2.3361  193.3003   17.4592 C   0  0  0  0  0  0
    2.2834  192.1759   16.4171 C   0  0  0  0  0  0
    3.4412  192.2441   15.4024 C   0  0  0  0  0  0
    4.6417  191.4597   15.7850 N   0  3  0  0  0  0
    4.5379  190.0052   15.5289 C   0  0  0  0  0  0
    5.9110  189.3483   15.7559 C   0  0  0  0  0  0
    6.3420  189.5959   17.0901 O   0  0  0  0  0  0
    6.5240  190.9849   17.3486 C   0  0  0  0  0  0
    5.1891  191.7206   17.1413 C   0  0  0  0  0  0
    1.2940  194.0018   20.7974 H   0  0  0  0  0  0
   -1.3584  196.7786   17.6466 H   0  0  0  0  0  0
   -1.7480  198.8716   21.7151 H   0  0  0  0  0  0
   -1.0631  194.6634   14.6990 H   0  0  0  0  0  0
   -2.0659  195.3069   15.9909 H   0  0  0  0  0  0
   -0.6354  196.2026   15.4231 H   0  0  0  0  0  0
    1.5703  194.9168   22.5377 H   0  0  0  0  0  0
   -1.4022  195.7771   24.3945 H   0  0  0  0  0  0
    2.8339  195.8625   27.0044 H   0  0  0  0  0  0
    2.9132  195.5343   24.5408 H   0  0  0  0  0  0
    3.2645  193.2970   18.0243 H   0  0  0  0  0  0
    2.2963  194.2699   16.9610 H   0  0  0  0  0  0
    1.3404  192.2687   15.8771 H   0  0  0  0  0  0
    2.2444  191.2014   16.9042 H   0  0  0  0  0  0
    3.7357  193.2809   15.2384 H   0  0  0  0  0  0
    3.0941  191.8861   14.4320 H   0  0  0  0  0  0
    4.2130  189.8291   14.5022 H   0  0  0  0  0  0
    3.7899  189.5562   16.1842 H   0  0  0  0  0  0
    5.8397  188.2705   15.6022 H   0  0  0  0  0  0
    6.6483  189.7240   15.0439 H   0  0  0  0  0  0
    6.8572  191.1069   18.3794 H   0  0  0  0  0  0
    7.3173  191.3941   16.7255 H   0  0  0  0  0  0
    4.4839  191.3779   17.8997 H   0  0  0  0  0  0
    5.3423  192.7886   17.2853 H   0  0  0  0  0  0
    5.3789  191.7760   15.1468 H   0  0  0  0  0  0
  1  2  2  0  0  0
  1  6  1  0  0  0
  1 12  1  0  0  0
  2  3  1  0  0  0
  2 22  1  0  0  0
  3  4  2  0  0  0
  3 32  1  0  0  0
  4  5  1  0  0  0
  4 10  1  0  0  0
  5  6  2  0  0  0
  5  7  1  0  0  0
  6 33  1  0  0  0
  7  8  2  0  0  0
  8  9  1  0  0  0
  8 34  1  0  0  0
  9 10  2  0  0  0
 10 13  1  0  0  0
 11 12  1  0  0  0
 11 35  1  0  0  0
 11 36  1  0  0  0
 11 37  1  0  0  0
 13 14  1  0  0  0
 13 38  1  0  0  0
 14 15  2  0  0  0
 14 19  1  0  0  0
 15 16  1  0  0  0
 15 39  1  0  0  0
 16 17  2  0  0  0
 16 21  1  0  0  0
 17 18  1  0  0  0
 17 20  1  0  0  0
 18 19  2  0  0  0
 18 40  1  0  0  0
 19 41  1  0  0  0
 22 23  1  0  0  0
 23 24  1  0  0  0
 23 42  1  0  0  0
 23 43  1  0  0  0
 24 25  1  0  0  0
 24 44  1  0  0  0
 24 45  1  0  0  0
 25 26  1  0  0  0
 25 46  1  0  0  0
 25 47  1  0  0  0
 26 27  1  0  0  0
 26 31  1  0  0  0
 26 56  1  0  0  0
 27 28  1  0  0  0
 27 48  1  0  0  0
 27 49  1  0  0  0
 28 29  1  0  0  0
 28 50  1  0  0  0
 28 51  1  0  0  0
 29 30  1  0  0  0
 30 31  1  0  0  0
 30 52  1  0  0  0
 30 53  1  0  0  0
 31 54  1  0  0  0
 31 55  1  0  0  0
M  CHG  1  26   1
M  END
> <Tot Q>
1

> <flags>
0

> <Source File Index>
2

> <stars>
0

> <subgroup collapsed>
0

> <prepared>
1

> <Ionization Penalty>
0.416

> <State Penalty>
0.4147

> <Potential Energy-S-OPLS>
-915.57

> <docking score>
-8.45221

> <glide emodel>
-84.2639

> <glide gscore>
-8.86691

> <tautomer probability>
0.999978

> <Source File>
glide-dock_SP_EGFR_WT_4WKQ_pv.maegz

> <Source Path>
C:\Users\yujie\Desktop\res\docking\EGFR (P00533)\glide-dock_SP_EGFR_WT_4WKQ

> <entry id>
197

> <subgroup title>
glide-dock_SP_EGFR_WT_4WKQ_pv

> <subgroupid>
glide-dock_SP_EGFR_WT_4WKQ_pv

$$$$
