lig23
                    3D
 Schrodinger Suite 2024-1.
 43 47  0  0  1  0            999 V2000
    0.6672   50.1610   26.6300 C   0  0  0  0  0  0
    0.8027   51.6666   26.3837 C   0  0  0  0  0  0
    0.8513   52.5595   27.6355 C   0  0  0  0  0  0
   -0.1215   52.3502   28.6256 C   0  0  0  0  0  0
   -0.1891   53.1552   29.7593 C   0  0  0  0  0  0
    0.6945   54.2162   29.9015 C   0  0  0  0  0  0
    1.6463   54.4539   28.9166 C   0  0  0  0  0  0
    1.7808   53.6239   27.7894 C   0  0  0  0  0  0
    2.8556   53.9584   26.7907 C   0  0  0  0  0  0
    2.5237   54.0487   25.4275 C   0  0  0  0  0  0
    3.5329   54.3242   24.5007 C   0  0  0  0  0  0
    3.4921   54.3427   23.1227 N   0  0  0  0  0  0
    4.7326   54.6524   22.6157 C   0  0  0  0  0  0
    5.1617   54.7615   21.2897 C   0  0  0  0  0  0
    6.4514   55.2477   21.0842 C   0  0  0  0  0  0
    7.3097   55.5252   22.1443 C   0  0  0  0  0  0
    8.5778   55.9606   21.8793 O   0  0  0  0  0  0
    6.9132   55.3110   23.4626 C   0  0  0  0  0  0
    5.5950   54.8973   23.7182 C   0  0  0  0  0  0
    4.8527   54.6523   24.8970 C   0  0  0  0  0  0
    5.1334   54.6634   26.2745 C   0  0  0  0  0  0
    4.1788   54.2611   27.1776 C   0  0  0  0  0  0
    4.8626   54.2099   28.5094 C   0  0  0  0  0  0
    4.4415   53.7865   29.5827 O   0  0  0  0  0  0
    6.0849   54.7293   28.3140 N   0  0  0  0  0  0
    6.3462   55.0481   27.0384 C   0  0  0  0  0  0
    7.3794   55.5593   26.6282 O   0  0  0  0  0  0
    2.6745   54.1624   22.5562 H   0  0  0  0  0  0
    0.5810   49.6370   25.6768 H   0  0  0  0  0  0
    1.5582   49.7689   27.1224 H   0  0  0  0  0  0
   -0.2077   49.9594   27.2406 H   0  0  0  0  0  0
   -0.0307   52.0123   25.7696 H   0  0  0  0  0  0
    1.6880   51.7794   25.7704 H   0  0  0  0  0  0
   -0.8505   51.5605   28.5359 H   0  0  0  0  0  0
   -0.9335   52.9626   30.5188 H   0  0  0  0  0  0
    0.6396   54.8560   30.7716 H   0  0  0  0  0  0
    2.3041   55.2989   29.0486 H   0  0  0  0  0  0
    1.5119   53.8819   25.0936 H   0  0  0  0  0  0
    4.5028   54.5602   20.4570 H   0  0  0  0  0  0
    6.8006   55.3963   20.0725 H   0  0  0  0  0  0
    9.1504   55.9589   22.6619 H   0  0  0  0  0  0
    7.6107   55.5027   24.2608 H   0  0  0  0  0  0
    6.7467   54.8765   29.0618 H   0  0  0  0  0  0
  1  2  1  0  0  0
  1 29  1  0  0  0
  1 30  1  0  0  0
  1 31  1  0  0  0
  2  3  1  0  0  0
  2 32  1  0  0  0
  2 33  1  0  0  0
  3  8  1  0  0  0
  3  4  2  0  0  0
  4  5  1  0  0  0
  4 34  1  0  0  0
  5  6  2  0  0  0
  5 35  1  0  0  0
  6  7  1  0  0  0
  6 36  1  0  0  0
  7  8  2  0  0  0
  7 37  1  0  0  0
  8  9  1  0  0  0
  9 22  1  0  0  0
  9 10  2  0  0  0
 10 11  1  0  0  0
 10 38  1  0  0  0
 11 20  2  0  0  0
 11 12  1  0  0  0
 12 28  1  0  0  0
 12 13  1  0  0  0
 13 19  1  0  0  0
 13 14  2  0  0  0
 14 15  1  0  0  0
 14 39  1  0  0  0
 15 16  2  0  0  0
 15 40  1  0  0  0
 16 17  1  0  0  0
 16 18  1  0  0  0
 17 41  1  0  0  0
 18 19  2  0  0  0
 18 42  1  0  0  0
 19 20  1  0  0  0
 20 21  1  0  0  0
 21 26  1  0  0  0
 21 22  2  0  0  0
 22 23  1  0  0  0
 23 24  2  0  0  0
 23 25  1  0  0  0
 25 26  1  0  0  0
 25 43  1  0  0  0
 26 27  2  0  0  0
M  END
> <Tot Q>
0

> <Source File Index>
142

> <i_f3d_flags>
0

> <subgroup collapsed>
0

> <Ionization Penalty>
0.0696

> <State Penalty>
0.057

> <docking score>
-9.65688

> <glide emodel>
-85.7742

> <glide gscore>
-9.71383

> <Source File>
Sries13442_dock_SP_confgen_100_lib.maegz

> <Source Path>
C:\Users\yujie\Desktop\two_s\data

> <entry id>
51571

> <subgroup title>
Sries13442_dock_SP_confgen_100_lib

> <subgroupid>
Sries13442_dock_SP_confgen_100_lib

$$$$
