lig21
                    3D
 Schrodinger Suite 2024-1.
 37 41  0  0  1  0            999 V2000
    4.3674   54.0936   29.9129 O   0  0  0  0  0  0
    4.7985   54.3369   28.7886 C   0  0  0  0  0  0
    6.0467   54.7538   28.5087 N   0  0  0  0  0  0
    6.3028   54.9043   27.2002 C   0  0  0  0  0  0
    7.3792   55.2577   26.7249 O   0  0  0  0  0  0
    5.0296   54.5562   26.5108 C   0  0  0  0  0  0
    4.0953   54.2428   27.4735 C   0  0  0  0  0  0
    2.7658   53.8961   27.1565 C   0  0  0  0  0  0
    1.7246   53.6564   28.2131 C   0  0  0  0  0  0
    1.5417   54.6234   29.2168 C   0  0  0  0  0  0
    0.6243   54.4434   30.2507 C   0  0  0  0  0  0
   -0.1762   53.3086   30.2765 C   0  0  0  0  0  0
   -0.0522   52.3611   29.2652 C   0  0  0  0  0  0
    0.8894   52.5165   28.2443 C   0  0  0  0  0  0
    0.9775   50.9686   26.8258 I   0  0  0  0  0  0
    2.3931   53.8295   25.8028 C   0  0  0  0  0  0
    3.3526   54.1142   24.8248 C   0  0  0  0  0  0
    3.2547   54.0857   23.4501 N   0  0  0  0  0  0
    4.4505   54.4575   22.8762 C   0  0  0  0  0  0
    4.8080   54.5742   21.5296 C   0  0  0  0  0  0
    6.0720   55.0889   21.2519 C   0  0  0  0  0  0
    6.9663   55.4188   22.2630 C   0  0  0  0  0  0
    8.1798   55.9482   21.9231 O   0  0  0  0  0  0
    6.6419   55.2215   23.6032 C   0  0  0  0  0  0
    5.3538   54.7589   23.9305 C   0  0  0  0  0  0
    4.6794   54.5038   25.1490 C   0  0  0  0  0  0
    2.4249   53.8443   22.9277 H   0  0  0  0  0  0
    6.7381   54.9417   29.2191 H   0  0  0  0  0  0
    2.1419   55.5210   29.2189 H   0  0  0  0  0  0
    0.5381   55.1837   31.0347 H   0  0  0  0  0  0
   -0.8859   53.1584   31.0798 H   0  0  0  0  0  0
   -0.6847   51.4861   29.2921 H   0  0  0  0  0  0
    1.3829   53.5694   25.5195 H   0  0  0  0  0  0
    4.1192   54.3361   20.7322 H   0  0  0  0  0  0
    6.3589   55.2402   20.2221 H   0  0  0  0  0  0
    8.8046   55.9594   22.6608 H   0  0  0  0  0  0
    7.3625   55.4698   24.3623 H   0  0  0  0  0  0
  1  2  2  0  0  0
  2  7  1  0  0  0
  2  3  1  0  0  0
  3  4  1  0  0  0
  3 28  1  0  0  0
  4  5  2  0  0  0
  4  6  1  0  0  0
  6 26  2  0  0  0
  6  7  1  0  0  0
  7  8  2  0  0  0
  8  9  1  0  0  0
  8 16  1  0  0  0
  9 14  1  0  0  0
  9 10  2  0  0  0
 10 11  1  0  0  0
 10 29  1  0  0  0
 11 12  2  0  0  0
 11 30  1  0  0  0
 12 13  1  0  0  0
 12 31  1  0  0  0
 13 14  2  0  0  0
 13 32  1  0  0  0
 14 15  1  0  0  0
 16 17  2  0  0  0
 16 33  1  0  0  0
 17 26  1  0  0  0
 17 18  1  0  0  0
 18 27  1  0  0  0
 18 19  1  0  0  0
 19 25  1  0  0  0
 19 20  2  0  0  0
 20 21  1  0  0  0
 20 34  1  0  0  0
 21 22  2  0  0  0
 21 35  1  0  0  0
 22 23  1  0  0  0
 22 24  1  0  0  0
 23 36  1  0  0  0
 24 25  2  0  0  0
 24 37  1  0  0  0
 25 26  1  0  0  0
M  END
> <Tot Q>
0

> <Source File Index>
421

> <i_f3d_flags>
0

> <subgroup collapsed>
0

> <Ionization Penalty>
0.078

> <State Penalty>
0.0643

> <docking score>
-8.88692

> <glide emodel>
-86.9088

> <glide gscore>
-8.95125

> <Source File>
Sries13442_dock_SP_confgen_100_lib.maegz

> <Source Path>
C:\Users\yujie\Desktop\two_s\data

> <entry id>
51850

> <subgroup title>
Sries13442_dock_SP_confgen_100_lib

> <subgroupid>
Sries13442_dock_SP_confgen_100_lib

$$$$
