lig96
                    3D
 Schrodinger Suite 2024-1.
 37 41  0  0  1  0            999 V2000
    4.5765   54.8083   30.1728 O   0  0  0  0  0  0
    4.9706   54.7620   29.0154 C   0  0  0  0  0  0
    6.1794   55.1594   28.6166 N   0  0  0  0  0  0
    6.3634   55.1592   27.2927 C   0  0  0  0  0  0
    7.3761   55.5514   26.7216 O   0  0  0  0  0  0
    5.0894   54.6402   26.7315 C   0  0  0  0  0  0
    4.2570   54.3274   27.7810 C   0  0  0  0  0  0
    2.9764   53.7725   27.6053 C   0  0  0  0  0  0
    2.1038   53.4344   28.7842 C   0  0  0  0  0  0
    2.6221   52.8197   29.9338 C   0  0  0  0  0  0
    1.8781   52.7595   31.1098 C   0  0  0  0  0  0
    0.5498   53.1638   31.1072 C   0  0  0  0  0  0
   -0.0228   53.6549   29.9419 C   0  0  0  0  0  0
    0.7556   53.8000   28.7977 C   0  0  0  0  0  0
    2.5070   53.5862   26.2897 C   0  0  0  0  0  0
    3.3402   53.9574   25.2155 C   0  0  0  0  0  0
    3.1371   53.8971   23.8488 N   0  0  0  0  0  0
    4.2723   54.2989   23.1692 C   0  0  0  0  0  0
    4.5438   54.3595   21.7967 C   0  0  0  0  0  0
    5.7798   54.8816   21.4110 C   0  0  0  0  0  0
    6.7272   55.2894   22.3447 C   0  0  0  0  0  0
    7.9128   55.8331   21.9232 O   0  0  0  0  0  0
    6.4830   55.1592   23.7076 C   0  0  0  0  0  0
    5.2327   54.6796   24.1412 C   0  0  0  0  0  0
    4.6524   54.4635   25.4123 C   0  0  0  0  0  0
    2.2905   53.5785   23.4000 H   0  0  0  0  0  0
    6.8748   55.5273   29.2547 H   0  0  0  0  0  0
    3.6467   52.4796   29.9538 H   0  0  0  0  0  0
    2.3195   52.3786   32.0192 H   0  0  0  0  0  0
   -0.0417   53.0901   32.0093 H   0  0  0  0  0  0
   -1.0551   53.9589   29.9413 H   0  0  0  0  0  0
    0.3141   54.2368   27.9261 H   0  0  0  0  0  0
    1.5244   53.1755   26.1112 H   0  0  0  0  0  0
    3.8151   54.0614   21.0562 H   0  0  0  0  0  0
    6.0017   54.9798   20.3582 H   0  0  0  0  0  0
    8.5516   55.9586   22.6351 H   0  0  0  0  0  0
    7.2449   55.4666   24.4005 H   0  0  0  0  0  0
  1  2  2  0  0  0
  2  7  1  0  0  0
  2  3  1  0  0  0
  3  4  1  0  0  0
  3 27  1  0  0  0
  4  5  2  0  0  0
  4  6  1  0  0  0
  6 25  2  0  0  0
  6  7  1  0  0  0
  7  8  2  0  0  0
  8  9  1  0  0  0
  8 15  1  0  0  0
  9 14  1  0  0  0
  9 10  2  0  0  0
 10 11  1  0  0  0
 10 28  1  0  0  0
 11 12  2  0  0  0
 11 29  1  0  0  0
 12 13  1  0  0  0
 12 30  1  0  0  0
 13 14  2  0  0  0
 13 31  1  0  0  0
 14 32  1  0  0  0
 15 16  2  0  0  0
 15 33  1  0  0  0
 16 25  1  0  0  0
 16 17  1  0  0  0
 17 26  1  0  0  0
 17 18  1  0  0  0
 18 24  1  0  0  0
 18 19  2  0  0  0
 19 20  1  0  0  0
 19 34  1  0  0  0
 20 21  2  0  0  0
 20 35  1  0  0  0
 21 22  1  0  0  0
 21 23  1  0  0  0
 22 36  1  0  0  0
 23 24  2  0  0  0
 23 37  1  0  0  0
 24 25  1  0  0  0
M  END
> <Tot Q>
0

> <Source File Index>
1

> <i_f3d_flags>
0

> <Ionization Penalty>
0.0696

> <State Penalty>
0.057

> <docking score>
-10.0668

> <glide emodel>
-81.2071

> <glide gscore>
-10.1237

> <Source File>
lig96.sdf

> <Source Path>
C:\Users\yujie\Desktop\two_s\data

> <entry id>
51424

$$$$
