lig19
                    3D
 Schrodinger Suite 2024-1.
 37 41  0  0  1  0            999 V2000
    4.5550   54.9910   30.2742 O   0  0  0  0  0  0
    4.9478   54.8686   29.1222 C   0  0  0  0  0  0
    6.1792   55.1595   28.6980 N   0  0  0  0  0  0
    6.3462   55.1016   27.3715 C   0  0  0  0  0  0
    7.3787   55.3986   26.7748 O   0  0  0  0  0  0
    5.0320   54.6428   26.8464 C   0  0  0  0  0  0
    4.2026   54.4157   27.9176 C   0  0  0  0  0  0
    2.8995   53.9088   27.7887 C   0  0  0  0  0  0
    2.0576   53.6301   29.0018 C   0  0  0  0  0  0
    0.7638   54.1556   29.1198 C   0  0  0  0  0  0
    0.0075   53.9663   30.2778 C   0  0  0  0  0  0
    0.5504   53.2905   31.3640 C   0  0  0  0  0  0
    1.8303   52.7595   31.2702 C   0  0  0  0  0  0
    2.5570   52.8859   30.0869 C   0  0  0  0  0  0
    3.7762   52.3052   30.0181 F   0  0  0  0  0  0
    2.4011   53.6665   26.4951 C   0  0  0  0  0  0
    3.2269   53.9594   25.3906 C   0  0  0  0  0  0
    2.9988   53.8558   24.0298 N   0  0  0  0  0  0
    4.1222   54.2346   23.3159 C   0  0  0  0  0  0
    4.3643   54.2692   21.9371 C   0  0  0  0  0  0
    5.6055   54.7515   21.5147 C   0  0  0  0  0  0
    6.5805   55.1596   22.4197 C   0  0  0  0  0  0
    7.7789   55.6455   21.9643 O   0  0  0  0  0  0
    6.3551   55.0815   23.7892 C   0  0  0  0  0  0
    5.1094   54.6229   24.2575 C   0  0  0  0  0  0
    4.5563   54.4421   25.5442 C   0  0  0  0  0  0
    2.1381   53.5393   23.6082 H   0  0  0  0  0  0
    6.9020   55.5083   29.3166 H   0  0  0  0  0  0
    0.3446   54.7458   28.3232 H   0  0  0  0  0  0
   -0.9888   54.3729   30.3549 H   0  0  0  0  0  0
   -0.0183   53.1786   32.2765 H   0  0  0  0  0  0
    2.2544   52.2450   32.1200 H   0  0  0  0  0  0
    1.4034   53.2770   26.3586 H   0  0  0  0  0  0
    3.6198   53.9586   21.2179 H   0  0  0  0  0  0
    5.8113   54.8124   20.4558 H   0  0  0  0  0  0
    8.4372   55.7597   22.6599 H   0  0  0  0  0  0
    7.1339   55.3956   24.4597 H   0  0  0  0  0  0
  1  2  2  0  0  0
  2  7  1  0  0  0
  2  3  1  0  0  0
  3  4  1  0  0  0
  3 28  1  0  0  0
  4  5  2  0  0  0
  4  6  1  0  0  0
  6 26  2  0  0  0
  6  7  1  0  0  0
  7  8  2  0  0  0
  8  9  1  0  0  0
  8 16  1  0  0  0
  9 14  1  0  0  0
  9 10  2  0  0  0
 10 11  1  0  0  0
 10 29  1  0  0  0
 11 12  2  0  0  0
 11 30  1  0  0  0
 12 13  1  0  0  0
 12 31  1  0  0  0
 13 14  2  0  0  0
 13 32  1  0  0  0
 14 15  1  0  0  0
 16 17  2  0  0  0
 16 33  1  0  0  0
 17 26  1  0  0  0
 17 18  1  0  0  0
 18 27  1  0  0  0
 18 19  1  0  0  0
 19 25  1  0  0  0
 19 20  2  0  0  0
 20 21  1  0  0  0
 20 34  1  0  0  0
 21 22  2  0  0  0
 21 35  1  0  0  0
 22 23  1  0  0  0
 22 24  1  0  0  0
 23 36  1  0  0  0
 24 25  2  0  0  0
 24 37  1  0  0  0
 25 26  1  0  0  0
M  END
> <Tot Q>
0

> <Source File Index>
78

> <i_f3d_flags>
0

> <subgroup collapsed>
0

> <Ionization Penalty>
0.0696

> <State Penalty>
0.057

> <docking score>
-9.89438

> <glide emodel>
-82.2108

> <glide gscore>
-9.95134

> <Source File>
Sries13442_dock_SP_confgen_100_lib.maegz

> <Source Path>
C:\Users\yujie\Desktop\two_s\data

> <entry id>
51507

> <subgroup title>
Sries13442_dock_SP_confgen_100_lib

> <subgroupid>
Sries13442_dock_SP_confgen_100_lib

$$$$
