/home/yujie/leadopt/data/result/selection/PSK13/lig_37.sdf:1
                    3D
 Schrodinger Suite 2024-1.
 58 62  0  0  1  0            999 V2000
    7.7261   27.2837    6.1490 C   0  0  0  0  0  0
    6.5077   26.8819    6.8416 N   0  0  0  0  0  0
    5.4597   26.3052    6.2413 C   0  0  0  0  0  0
    5.3954   26.0555    5.0418 O   0  0  0  0  0  0
    4.3722   26.0065    7.1173 C   0  0  0  0  0  0
    4.0886   24.7282    7.6322 C   0  0  0  0  0  0
    2.9793   24.7507    8.4256 O   0  0  0  0  0  0
    2.5077   26.0203    8.4067 C   0  0  0  0  0  0
    1.3340   26.4435    9.0290 C   0  0  0  0  0  0
    0.9785   27.7751    8.8416 C   0  0  0  0  0  0
    1.7898   28.6543    8.1281 C   0  0  0  0  0  0
    3.0125   28.2454    7.5645 C   0  0  0  0  0  0
    3.3414   26.8703    7.6416 C   0  0  0  0  0  0
    3.9628   29.2930    6.9890 C   0  0  0  0  0  0
    5.0341   29.6685    8.0364 N   0  3  2  0  0  0
    4.4547   30.2752    9.3269 C   0  0  0  0  0  0
    5.6450   30.9069   10.0331 C   0  0  0  0  0  0
    6.7159   31.1281    8.9493 C   0  0  0  0  0  0
    8.0909   30.5056    9.2625 C   0  0  0  0  0  0
    8.6217   31.8424    9.6415 O   0  0  0  0  0  0
    7.4309   32.4863    9.0099 C   0  0  0  0  0  0
    6.0819   30.7080    7.6108 C   0  0  0  0  0  0
    1.3757   29.9546    8.0416 O   0  0  0  0  0  0
    4.6880   23.3669    7.4665 C   0  0  0  0  0  0
    3.8538   22.2426    7.5173 C   0  0  0  0  0  0
    4.3736   20.9610    7.3546 C   0  0  0  0  0  0
    5.7382   20.7856    7.1400 C   0  0  0  0  0  0
    6.5903   21.8982    7.0908 C   0  0  0  0  0  0
    6.0585   23.1815    7.2549 C   0  0  0  0  0  0
    8.0870   21.7265    6.8722 C   0  0  0  0  0  0
    6.2250   19.5151    6.9822 O   0  0  0  0  0  0
    8.1076   28.2107    6.5754 H   0  0  0  0  0  0
    8.4905   26.5157    6.2679 H   0  0  0  0  0  0
    7.5670   27.4423    5.0809 H   0  0  0  0  0  0
    6.5311   26.9191    7.8514 H   0  0  0  0  0  0
    0.7156   25.7588    9.5916 H   0  0  0  0  0  0
    0.0583   28.1460    9.2682 H   0  0  0  0  0  0
    4.5019   28.9414    6.1082 H   0  0  0  0  0  0
    3.4680   30.2287    6.7222 H   0  0  0  0  0  0
    3.7340   31.0228    8.9940 H   0  0  0  0  0  0
    3.9176   29.5169    9.8974 H   0  0  0  0  0  0
    5.3263   31.8420   10.4971 H   0  0  0  0  0  0
    5.9858   30.2529   10.8362 H   0  0  0  0  0  0
    8.1447   29.8275   10.1115 H   0  0  0  0  0  0
    8.6712   30.1453    8.4111 H   0  0  0  0  0  0
    7.7340   32.9106    8.0525 H   0  0  0  0  0  0
    7.0128   33.2363    9.6831 H   0  0  0  0  0  0
    6.7476   30.2438    6.8820 H   0  0  0  0  0  0
    5.5330   31.5133    7.1165 H   0  0  0  0  0  0
    0.9941   30.2424    8.9015 H   0  0  0  0  0  0
    2.7906   22.3566    7.6706 H   0  0  0  0  0  0
    3.7130   20.1069    7.3940 H   0  0  0  0  0  0
    6.7190   24.0350    7.2211 H   0  0  0  0  0  0
    8.6252   22.6747    6.9000 H   0  0  0  0  0  0
    8.2731   21.2511    5.9087 H   0  0  0  0  0  0
    8.5060   21.0757    7.6412 H   0  0  0  0  0  0
    5.5284   18.8610    6.8415 H   0  0  0  0  0  0
    5.5160   28.8138    8.2816 H   0  0  0  0  0  0
  1  2  1  0  0  0
  1 32  1  0  0  0
  1 33  1  0  0  0
  1 34  1  0  0  0
  2  3  1  0  0  0
  2 35  1  0  0  0
  3  4  2  0  0  0
  3  5  1  0  0  0
  5 13  1  0  0  0
  5  6  2  0  0  0
  6  7  1  0  0  0
  6 24  1  0  0  0
  7  8  1  0  0  0
  8 13  1  0  0  0
  8  9  2  0  0  0
  9 10  1  0  0  0
  9 36  1  0  0  0
 10 11  2  0  0  0
 10 37  1  0  0  0
 11 12  1  0  0  0
 11 23  1  0  0  0
 12 13  2  0  0  0
 12 14  1  0  0  0
 14 15  1  0  0  0
 14 38  1  0  0  0
 14 39  1  0  0  0
 15 22  1  0  0  0
 15 16  1  0  0  0
 15 58  1  0  0  0
 16 17  1  0  0  0
 16 40  1  0  0  0
 16 41  1  0  0  0
 17 18  1  0  0  0
 17 42  1  0  0  0
 17 43  1  0  0  0
 18 21  1  0  0  0
 18 19  1  0  0  0
 18 22  1  0  0  0
 19 20  1  0  0  0
 19 44  1  0  0  0
 19 45  1  0  0  0
 20 21  1  0  0  0
 21 46  1  0  0  0
 21 47  1  0  0  0
 22 48  1  0  0  0
 22 49  1  0  0  0
 23 50  1  0  0  0
 24 29  1  0  0  0
 24 25  2  0  0  0
 25 26  1  0  0  0
 25 51  1  0  0  0
 26 27  2  0  0  0
 26 52  1  0  0  0
 27 28  1  0  0  0
 27 31  1  0  0  0
 28 29  2  0  0  0
 28 30  1  0  0  0
 29 53  1  0  0  0
 30 54  1  0  0  0
 30 55  1  0  0  0
 30 56  1  0  0  0
 31 57  1  0  0  0
M  CHG  1  15   1
M  END
> <Tot Q>
1

> <Source File Index>
2

> <i_f3d_flags>
0

> <subgroup collapsed>
0

> <Ionization Penalty>
0.4561

> <State Penalty>
0.4234

> <docking score>
-10.6133

> <glide emodel>
-115.182

> <glide gscore>
-11.0367

> <tautomer probability>
1

> <Source File>
PSK13_lig_37_ligprepout_dock_SP_confgen_pv.maegz

> <Source Path>
C:\Users\yujie\Desktop\FT_and_sele\Jupyter

> <entry id>
1168

> <subgroup title>
PSK13_lig_37_ligprepout_dock_SP_confgen_pv

> <subgroupid>
PSK13_lig_37_ligprepout_dock_SP_confgen_pv

$$$$
