/home/yujie/leadopt/data/result/selection/HO1/lig_7i.sdf:1
                    3D
 Schrodinger Suite 2024-1.
 43 45  0  0  1  0            999 V2000
  -25.6370  -12.0912    6.8074 O   0  0  0  0  0  0
  -24.5890  -11.5765    7.2075 C   0  0  0  0  0  0
  -23.6026  -12.5477    7.8921 C   0  0  0  0  0  0
  -24.2669  -13.3522    8.9383 N   0  0  0  0  0  0
  -25.2077  -14.3448    8.7783 C   0  0  0  0  0  0
  -25.4957  -14.8296   10.0318 C   0  0  0  0  0  0
  -24.7165  -14.1158   10.9041 N   0  3  0  0  0  0
  -23.9869  -13.2161   10.2412 C   0  0  0  0  0  0
  -24.3577  -10.2370    7.0952 N   0  0  0  0  0  0
  -23.0949   -9.5847    7.4825 C   0  0  0  0  0  0
  -25.4156   -9.3273    6.5620 C   0  0  0  0  0  0
  -24.9214   -8.2814    5.5491 C   0  0  0  0  0  0
  -24.1641   -7.1526    5.9429 C   0  0  0  0  0  0
  -23.7504   -6.1962    4.9969 C   0  0  0  0  0  0
  -24.1106   -6.3454    3.6450 C   0  0  0  0  0  0
  -24.8889   -7.4482    3.2501 C   0  0  0  0  0  0
  -25.2874   -8.4080    4.1936 C   0  0  0  0  0  0
  -26.3912   -8.7571    7.6130 C   0  0  0  0  0  0
  -26.7597   -9.4985    8.7606 C   0  0  0  0  0  0
  -27.7320   -9.0040    9.6531 C   0  0  0  0  0  0
  -28.3233   -7.7469    9.4403 C   0  0  0  0  0  0
  -27.9746   -7.0017    8.3033 C   0  0  0  0  0  0
  -27.0403   -7.5191    7.3878 C   0  0  0  0  0  0
  -22.7245  -12.0983    8.3399 H   0  0  0  0  0  0
  -23.2258  -13.2378    7.1372 H   0  0  0  0  0  0
  -25.5938  -14.6126    7.8003 H   0  0  0  0  0  0
  -26.1712  -15.6129   10.3539 H   0  0  0  0  0  0
  -23.2675  -12.5613   10.6972 H   0  0  0  0  0  0
  -22.2830  -10.2324    7.7878 H   0  0  0  0  0  0
  -22.6516   -9.0354    6.6588 H   0  0  0  0  0  0
  -23.2750   -8.8799    8.2952 H   0  0  0  0  0  0
  -26.0895   -9.9329    5.9556 H   0  0  0  0  0  0
  -23.8979   -7.0194    6.9799 H   0  0  0  0  0  0
  -23.1753   -5.3392    5.3162 H   0  0  0  0  0  0
  -23.8139   -5.6063    2.9156 H   0  0  0  0  0  0
  -25.2015   -7.5657    2.2253 H   0  0  0  0  0  0
  -25.9041   -9.2288    3.8666 H   0  0  0  0  0  0
  -26.3381  -10.4734    8.9398 H   0  0  0  0  0  0
  -28.0497   -9.5935   10.4942 H   0  0  0  0  0  0
  -29.0626   -7.3628   10.1280 H   0  0  0  0  0  0
  -28.4389   -6.0434    8.1173 H   0  0  0  0  0  0
  -26.8417   -6.9558    6.4899 H   0  0  0  0  0  0
  -24.6204  -14.2490   11.9174 H   0  0  0  0  0  0
  1  2  2  0  0  0
  2  3  1  0  0  0
  2  9  1  0  0  0
  3  4  1  0  0  0
  3 24  1  0  0  0
  3 25  1  0  0  0
  4  8  1  0  0  0
  4  5  1  0  0  0
  5  6  2  0  0  0
  5 26  1  0  0  0
  6  7  1  0  0  0
  6 27  1  0  0  0
  7  8  2  0  0  0
  7 43  1  0  0  0
  8 28  1  0  0  0
  9 10  1  0  0  0
  9 11  1  0  0  0
 10 29  1  0  0  0
 10 30  1  0  0  0
 10 31  1  0  0  0
 11 12  1  0  0  0
 11 18  1  0  0  0
 11 32  1  0  0  0
 12 17  1  0  0  0
 12 13  2  0  0  0
 13 14  1  0  0  0
 13 33  1  0  0  0
 14 15  2  0  0  0
 14 34  1  0  0  0
 15 16  1  0  0  0
 15 35  1  0  0  0
 16 17  2  0  0  0
 16 36  1  0  0  0
 17 37  1  0  0  0
 18 23  1  0  0  0
 18 19  2  0  0  0
 19 20  1  0  0  0
 19 38  1  0  0  0
 20 21  2  0  0  0
 20 39  1  0  0  0
 21 22  1  0  0  0
 21 40  1  0  0  0
 22 23  2  0  0  0
 22 41  1  0  0  0
 23 42  1  0  0  0
M  CHG  1   7   1
M  END
> <Tot Q>
1

> <Source File Index>
2

> <i_f3d_flags>
0

> <subgroup collapsed>
0

> <Ionization Penalty>
0.6221

> <State Penalty>
0.6382

> <docking score>
-7.06925

> <glide emodel>
-63.5409

> <glide gscore>
-7.70742

> <tautomer probability>
1

> <Source File>
HO1_lig_7i_ligprepout_dock_SP_confgen_pv.maegz

> <Source Path>
C:\Users\yujie\Desktop\FT_and_sele\Jupyter

> <entry id>
1461

> <subgroup title>
HO1_lig_7i_ligprepout_dock_SP_confgen_pv

> <subgroupid>
HO1_lig_7i_ligprepout_dock_SP_confgen_pv

$$$$
