lig_eg5_CHEMBL1086409
                    3D
 Schrodinger Suite 2020-3.
 51 54  0  0  1  0            999 V2000
   26.6262   13.8984   25.0872 C   0  0  0  0  0  0
   26.8027   15.3454   25.5962 N   0  3  0  0  0  0
   26.1725   16.3521   24.6240 C   0  0  0  0  0  0
   26.1693   17.7920   25.1681 C   0  0  2  0  0  0
   27.5290   18.4507   24.9272 C   0  0  0  0  0  0
   27.4715   19.9172   25.3417 C   0  0  0  0  0  0
   26.9059   20.1562   26.7689 C   0  0  2  0  0  0
   27.8864   19.9635   27.9664 C   0  0  1  0  0  0
   29.2874   20.5510   27.8655 C   0  0  0  0  0  0
   30.2776   20.0335   28.7061 C   0  0  0  0  0  0
   31.5952   20.4459   28.5655 C   0  0  0  0  0  0
   31.9193   21.3323   27.5487 C   0  0  0  0  0  0
   33.2019   21.6440   27.3201 F   0  0  0  0  0  0
   30.9369   21.9031   26.7566 C   0  0  0  0  0  0
   29.6077   21.5688   26.9646 C   0  0  0  0  0  0
   27.2199   20.4462   29.1655 N   0  0  0  0  0  0
   25.9355   19.9649   29.4344 C   0  0  0  0  0  0
   25.4708   20.1118   30.7346 C   0  0  0  0  0  0
   24.2713   19.5304   31.1147 C   0  0  0  0  0  0
   23.5545   18.7463   30.2105 C   0  0  0  0  0  0
   22.3078   18.0246   30.7079 C   0  0  0  0  0  0
   21.7592   17.2483   29.7742 F   0  0  0  0  0  0
   22.6363   17.2560   31.7466 F   0  0  0  0  0  0
   21.4099   18.9216   31.1145 F   0  0  0  0  0  0
   24.0080   18.6393   28.8862 C   0  0  0  0  0  0
   25.1849   19.2739   28.4610 C   0  0  0  0  0  0
   25.6364   19.2646   26.9904 C   0  0  2  0  0  0
   25.8540   17.9046   26.5660 O   0  0  0  0  0  0
   26.3433   15.4598   26.4909 H   0  0  0  0  0  0
   26.8003   13.2206   25.9183 H   0  0  0  0  0  0
   27.3508   13.7413   24.2862 H   0  0  0  0  0  0
   25.6030   13.7720   24.7297 H   0  0  0  0  0  0
   26.7189   16.2498   23.6848 H   0  0  0  0  0  0
   25.1566   16.0073   24.4721 H   0  0  0  0  0  0
   25.4027   18.3123   24.5866 H   0  0  0  0  0  0
   28.3177   17.9236   25.4676 H   0  0  0  0  0  0
   27.7963   18.3972   23.8692 H   0  0  0  0  0  0
   28.4350   20.3724   25.1402 H   0  0  0  0  0  0
   26.7976   20.4335   24.6567 H   0  0  0  0  0  0
   26.5648   21.1934   26.8007 H   0  0  0  0  0  0
   28.0501   18.8904   28.0861 H   0  0  0  0  0  0
   30.0303   19.2855   29.4467 H   0  0  0  0  0  0
   32.3626   20.0424   29.2073 H   0  0  0  0  0  0
   31.2076   22.6201   25.9960 H   0  0  0  0  0  0
   28.8420   22.0560   26.3809 H   0  0  0  0  0  0
   27.8213   20.7893   29.8972 H   0  0  0  0  0  0
   26.0395   20.6636   31.4675 H   0  0  0  0  0  0
   23.9249   19.6468   32.1309 H   0  0  0  0  0  0
   23.4320   18.0774   28.1659 H   0  0  0  0  0  0
   24.8166   19.6801   26.3985 H   0  0  0  0  0  0
   27.7820   15.5587   25.7364 H   0  0  0  0  0  0
  1  2  1  0  0  0
  1 30  1  0  0  0
  1 31  1  0  0  0
  1 32  1  0  0  0
  2 29  1  0  0  0
  2  3  1  0  0  0
  2 51  1  0  0  0
  3  4  1  0  0  0
  3 33  1  0  0  0
  3 34  1  0  0  0
  4 28  1  0  0  0
  4  5  1  0  0  0
  4 35  1  0  0  0
  5  6  1  0  0  0
  5 36  1  0  0  0
  5 37  1  0  0  0
  6  7  1  0  0  0
  6 38  1  0  0  0
  6 39  1  0  0  0
  7 27  1  0  0  0
  7  8  1  0  0  0
  7 40  1  0  0  0
  8  9  1  0  0  0
  8 16  1  0  0  0
  8 41  1  0  0  0
  9 15  1  0  0  0
  9 10  2  0  0  0
 10 11  1  0  0  0
 10 42  1  0  0  0
 11 12  2  0  0  0
 11 43  1  0  0  0
 12 13  1  0  0  0
 12 14  1  0  0  0
 14 15  2  0  0  0
 14 44  1  0  0  0
 15 45  1  0  0  0
 16 17  1  0  0  0
 16 46  1  0  0  0
 17 26  2  0  0  0
 17 18  1  0  0  0
 18 19  2  0  0  0
 18 47  1  0  0  0
 19 20  1  0  0  0
 19 48  1  0  0  0
 20 21  1  0  0  0
 20 25  2  0  0  0
 21 22  1  0  0  0
 21 23  1  0  0  0
 21 24  1  0  0  0
 25 26  1  0  0  0
 25 49  1  0  0  0
 26 27  1  0  0  0
 27 28  1  0  0  0
 27 50  1  0  0  0
M  CHG  1   2   1
M  END
> <s_m_source_file>
/home/user-home/yujie/0_PBCNetv2/data/FEP/eg5/inp_ligprep.csv

> <i_m_source_file_index>
24

> <i_lp_mmshare_version>
51139

> <i_f3d_flags>
0

> <s_epik_input>
W0NIM11bTkhdW0NIMl1bQ0BIXShbQ0gyXVtDSDJdMSlPW0NASF0oW0NASF0xMiljM2MoW2NIXVtjSF1jKEMoRikoRilGKVtjSF0zKVtOSF1bQ0BASF0yYzRbY0hdW2NIXWMoRilbY0hdW2NIXTQ=

> <s_epik_cmdline>
J2VwaWtfcHl0aG9uJywgJy1waHQnLCAnMi4wJywgJy1waCcsICc3LjQnLCAnLXRuJywgJzgnLCAnLW1hJywgJzIwMCcsICctaW1hZScsICc8aW5maWxlLm1hZT4nLCAnLW9tYWUnLCAnPG91dGZpbGUubWFlPic=

> <r_epik_Ionization_Penalty>
  0.0023

> <r_epik_Ionization_Penalty_Charging>
  0.0023

> <r_epik_Ionization_Penalty_Neutral>
  0.0000

> <r_epik_State_Penalty>
  0.0016

> <r_epik_Charging_Adjusted_Penalty>
0.00395302

> <i_epik_Tot_Q>
1

> <i_epik_Tot_abs_Q>
1

> <s_lp_Force_Field>
OPLS3e

> <r_lp_Energy>
39.0337

> <b_lp_Chiralities_Consistent>
1

> <s_lp_Variant>
lig_eg5_CHEMBL1086409-1

> <s_i_glide_gridfile>
eg5-001-gridgen

> <i_i_glide_lignum>
32

> <i_i_glide_rotatable_bonds>
4

> <r_i_docking_score>
-7.61991460185824

> <r_i_glide_ligand_efficiency>
-0.272139807209223

> <r_i_glide_ligand_efficiency_sa>
-0.826376736462009

> <r_i_glide_ligand_efficiency_ln>
-1.75890002052329

> <r_i_glide_gscore>
-7.62152906185824

> <r_i_glide_lipo>
-3.84719435332686

> <r_i_glide_hbond>
0

> <r_i_glide_metal>
-0

> <r_i_glide_rewards>
-1.90841153549231

> <r_i_glide_evdw>
-39.267951965332

> <r_i_glide_ecoul>
-1.01774418354034

> <r_i_glide_erotb>
0.250136052758579

> <r_i_glide_esite>
0

> <r_i_glide_emodel>
-55.4169742539682

> <r_i_glide_energy>
-40.2856961488724

> <r_i_glide_einternal>
5.81701993942261

> <i_i_glide_confnum>
6

> <i_i_glide_posenum>
103

> <r_i_glide_eff_state_penalty>
0.00161446

$$$$
