lig_eg5_CHEMBL1085666
                    3D
 Schrodinger Suite 2020-3.
 48 51  0  0  1  0            999 V2000
   27.8409   14.8877   24.7170 N   0  3  0  0  0  0
   27.3416   15.4697   26.0495 C   0  0  0  0  0  0
   27.0033   16.9639   25.9110 C   0  0  2  0  0  0
   28.2243   17.8041   25.4801 C   0  0  0  0  0  0
   27.8893   19.3004   25.4842 C   0  0  0  0  0  0
   27.2423   19.7655   26.8165 C   0  0  2  0  0  0
   28.1850   19.8599   28.0561 C   0  0  1  0  0  0
   29.5408   20.5447   27.8753 C   0  0  0  0  0  0
   29.7593   21.5350   26.9105 C   0  0  0  0  0  0
   31.0405   22.0436   26.7153 C   0  0  0  0  0  0
   32.0788   21.6417   27.5468 C   0  0  0  0  0  0
   31.8481   20.7316   28.5694 C   0  0  0  0  0  0
   30.5896   20.1615   28.7174 C   0  0  0  0  0  0
   27.4299   20.4441   29.1629 N   0  0  0  0  0  0
   26.1478   19.9456   29.4507 C   0  0  0  0  0  0
   25.6010   20.2266   30.7039 C   0  0  0  0  0  0
   24.3986   19.6438   31.0876 C   0  0  0  0  0  0
   23.7601   18.7304   30.2460 C   0  0  0  0  0  0
   22.5018   18.0176   30.7323 C   0  0  0  0  0  0
   22.8080   17.2448   31.7770 F   0  0  0  0  0  0
   21.6027   18.9197   31.1154 F   0  0  0  0  0  0
   21.9505   17.2449   29.7955 F   0  0  0  0  0  0
   24.2973   18.4802   28.9782 C   0  0  0  0  0  0
   25.4797   19.0959   28.5444 C   0  0  0  0  0  0
   26.0604   18.8071   27.1566 C   0  0  2  0  0  0
   26.5100   17.4457   27.1634 O   0  0  0  0  0  0
   28.0630   13.9065   24.8213 H   0  0  0  0  0  0
   28.6764   15.3734   24.4236 H   0  0  0  0  0  0
   26.4688   14.8737   26.3147 H   0  0  0  0  0  0
   28.1439   15.2871   26.7656 H   0  0  0  0  0  0
   26.2107   17.0460   25.1635 H   0  0  0  0  0  0
   29.0644   17.6096   26.1494 H   0  0  0  0  0  0
   28.5613   17.5160   24.4838 H   0  0  0  0  0  0
   28.7895   19.8598   25.2372 H   0  0  0  0  0  0
   27.1913   19.5077   24.6708 H   0  0  0  0  0  0
   26.8159   20.7562   26.6374 H   0  0  0  0  0  0
   28.4376   18.8361   28.3441 H   0  0  0  0  0  0
   28.9521   21.8836   26.2827 H   0  0  0  0  0  0
   31.2275   22.7639   25.9305 H   0  0  0  0  0  0
   33.0729   22.0438   27.4125 H   0  0  0  0  0  0
   32.6564   20.4474   29.2255 H   0  0  0  0  0  0
   30.4293   19.4217   29.4877 H   0  0  0  0  0  0
   27.9779   20.9290   29.8554 H   0  0  0  0  0  0
   26.1107   20.8816   31.3923 H   0  0  0  0  0  0
   23.9877   19.8622   32.0629 H   0  0  0  0  0  0
   23.8007   17.7877   28.3150 H   0  0  0  0  0  0
   25.2694   18.9270   26.4132 H   0  0  0  0  0  0
   27.1384   14.9880   23.9981 H   0  0  0  0  0  0
  1 27  1  0  0  0
  1 28  1  0  0  0
  1  2  1  0  0  0
  1 48  1  0  0  0
  2  3  1  0  0  0
  2 29  1  0  0  0
  2 30  1  0  0  0
  3 26  1  0  0  0
  3  4  1  0  0  0
  3 31  1  0  0  0
  4  5  1  0  0  0
  4 32  1  0  0  0
  4 33  1  0  0  0
  5  6  1  0  0  0
  5 34  1  0  0  0
  5 35  1  0  0  0
  6 25  1  0  0  0
  6  7  1  0  0  0
  6 36  1  0  0  0
  7  8  1  0  0  0
  7 14  1  0  0  0
  7 37  1  0  0  0
  8 13  1  0  0  0
  8  9  2  0  0  0
  9 10  1  0  0  0
  9 38  1  0  0  0
 10 11  2  0  0  0
 10 39  1  0  0  0
 11 12  1  0  0  0
 11 40  1  0  0  0
 12 13  2  0  0  0
 12 41  1  0  0  0
 13 42  1  0  0  0
 14 15  1  0  0  0
 14 43  1  0  0  0
 15 24  2  0  0  0
 15 16  1  0  0  0
 16 17  2  0  0  0
 16 44  1  0  0  0
 17 18  1  0  0  0
 17 45  1  0  0  0
 18 19  1  0  0  0
 18 23  2  0  0  0
 19 20  1  0  0  0
 19 21  1  0  0  0
 19 22  1  0  0  0
 23 24  1  0  0  0
 23 46  1  0  0  0
 24 25  1  0  0  0
 25 26  1  0  0  0
 25 47  1  0  0  0
M  CHG  1   1   1
M  END
> <s_m_source_file>
/home/user-home/yujie/0_PBCNetv2/data/FEP/eg5/inp_ligprep.csv

> <i_m_source_file_index>
12

> <i_lp_mmshare_version>
51139

> <i_f3d_flags>
0

> <s_epik_input>
W05IMl1bQ0gyXVtDQEhdKFtDSDJdW0NIMl0xKU9bQ0BIXShbQ0BIXTEyKWMzYyhbY0hdW2NIXWMoQyhGKShGKUYpW2NIXTMpW05IXVtDQEBIXTJjNFtjSF1bY0hdW2NIXVtjSF1bY0hdNA==

> <s_epik_cmdline>
J2VwaWtfcHl0aG9uJywgJy1waHQnLCAnMi4wJywgJy1waCcsICc3LjQnLCAnLXRuJywgJzgnLCAnLW1hJywgJzIwMCcsICctaW1hZScsICc8aW5maWxlLm1hZT4nLCAnLW9tYWUnLCAnPG91dGZpbGUubWFlPic=

> <r_epik_Ionization_Penalty>
  0.0054

> <r_epik_Ionization_Penalty_Charging>
  0.0054

> <r_epik_Ionization_Penalty_Neutral>
  0.0000

> <r_epik_State_Penalty>
  0.0039

> <r_epik_Charging_Adjusted_Penalty>
0.00932164

> <i_epik_Tot_Q>
1

> <i_epik_Tot_abs_Q>
1

> <s_lp_Force_Field>
OPLS3e

> <r_lp_Energy>
33.8113

> <b_lp_Chiralities_Consistent>
1

> <s_lp_Variant>
lig_eg5_CHEMBL1085666-1

> <s_i_glide_gridfile>
eg5-001-gridgen

> <i_i_glide_lignum>
15

> <i_i_glide_rotatable_bonds>
3

> <r_i_docking_score>
-8.74730156843296

> <r_i_glide_ligand_efficiency>
-0.33643467570896

> <r_i_glide_ligand_efficiency_sa>
-0.996686402981269

> <r_i_glide_ligand_efficiency_ln>
-2.05427507110897

> <r_i_glide_gscore>
-8.75123708843296

> <r_i_glide_lipo>
-4.47894190304102

> <r_i_glide_hbond>
0

> <r_i_glide_metal>
-0

> <r_i_glide_rewards>
-2.12455642501327

> <r_i_glide_evdw>
-41.8513107299805

> <r_i_glide_ecoul>
-1.33775269985199

> <r_i_glide_erotb>
0.145489681098158

> <r_i_glide_esite>
0

> <r_i_glide_emodel>
-59.8259512606098

> <r_i_glide_energy>
-43.1890634298325

> <r_i_glide_einternal>
6.22669076919556

> <i_i_glide_confnum>
2

> <i_i_glide_posenum>
397

> <r_i_glide_eff_state_penalty>
0.00393552

$$$$
