lig_eg5_CHEMBL1083517
                    3D
 Schrodinger Suite 2020-3.
 52 55  0  0  1  0            999 V2000
   26.7135   14.9284   24.0054 C   0  0  0  0  0  0
   27.7546   15.2949   25.0789 N   0  3  0  0  0  0
   27.1632   15.9003   26.3694 C   0  0  0  0  0  0
   26.5530   17.2918   26.1683 C   0  0  2  0  0  0
   27.5678   18.3030   25.5917 C   0  0  0  0  0  0
   27.0277   19.7290   25.6812 C   0  0  0  0  0  0
   26.5400   20.0487   27.1145 C   0  0  2  0  0  0
   27.5808   20.0219   28.2757 C   0  0  1  0  0  0
   28.9611   20.5985   28.0347 C   0  0  0  0  0  0
   29.1927   21.6257   27.1173 C   0  0  0  0  0  0
   30.4899   22.0075   26.8153 C   0  0  0  0  0  0
   31.5358   21.3782   27.4793 C   0  0  0  0  0  0
   32.8083   21.6438   27.1140 O   0  0  0  0  0  0
   31.3164   20.4444   28.4803 C   0  0  0  0  0  0
   30.0216   20.0405   28.7487 C   0  0  0  0  0  0
   26.9472   20.5491   29.4769 N   0  0  0  0  0  0
   25.6825   20.0439   29.8151 C   0  0  0  0  0  0
   25.2071   20.3092   31.0957 C   0  0  0  0  0  0
   24.0025   19.7641   31.5141 C   0  0  0  0  0  0
   23.3027   18.9018   30.6716 C   0  0  0  0  0  0
   22.0429   18.2623   31.2007 C   0  0  0  0  0  0
   21.4485   17.4585   30.3157 F   0  0  0  0  0  0
   22.4025   17.5418   32.2681 F   0  0  0  0  0  0
   21.2043   19.2437   31.5506 F   0  0  0  0  0  0
   23.7745   18.6458   29.3802 C   0  0  0  0  0  0
   24.9461   19.2450   28.9121 C   0  0  0  0  0  0
   25.4383   19.0235   27.4784 C   0  0  2  0  0  0
   26.0022   17.7073   27.4232 O   0  0  0  0  0  0
   28.2635   14.4549   25.3262 H   0  0  0  0  0  0
   27.2582   14.4442   23.1932 H   0  0  0  0  0  0
   26.2383   15.8483   23.6626 H   0  0  0  0  0  0
   25.9947   14.2440   24.4601 H   0  0  0  0  0  0
   26.4024   15.2160   26.7152 H   0  0  0  0  0  0
   27.9835   15.9129   27.0900 H   0  0  0  0  0  0
   25.7190   17.1981   25.4707 H   0  0  0  0  0  0
   28.5126   18.2351   26.1339 H   0  0  0  0  0  0
   27.7977   18.0665   24.5522 H   0  0  0  0  0  0
   27.8092   20.4033   25.3426 H   0  0  0  0  0  0
   26.2015   19.8518   24.9782 H   0  0  0  0  0  0
   26.0892   21.0437   27.0802 H   0  0  0  0  0  0
   27.7940   18.9718   28.4881 H   0  0  0  0  0  0
   28.3694   22.0892   26.6047 H   0  0  0  0  0  0
   30.6729   22.7319   26.0349 H   0  0  0  0  0  0
   32.8637   22.3134   26.4300 H   0  0  0  0  0  0
   32.1429   20.0069   29.0157 H   0  0  0  0  0  0
   29.8478   19.2721   29.4886 H   0  0  0  0  0  0
   27.5652   20.9500   30.1655 H   0  0  0  0  0  0
   25.7715   20.9322   31.7710 H   0  0  0  0  0  0
   23.6354   19.9752   32.5091 H   0  0  0  0  0  0
   23.2193   17.9962   28.7187 H   0  0  0  0  0  0
   24.6017   19.1075   26.7810 H   0  0  0  0  0  0
   28.4325   15.9403   24.6945 H   0  0  0  0  0  0
  1  2  1  0  0  0
  1 30  1  0  0  0
  1 31  1  0  0  0
  1 32  1  0  0  0
  2 29  1  0  0  0
  2  3  1  0  0  0
  2 52  1  0  0  0
  3  4  1  0  0  0
  3 33  1  0  0  0
  3 34  1  0  0  0
  4 28  1  0  0  0
  4  5  1  0  0  0
  4 35  1  0  0  0
  5  6  1  0  0  0
  5 36  1  0  0  0
  5 37  1  0  0  0
  6  7  1  0  0  0
  6 38  1  0  0  0
  6 39  1  0  0  0
  7 27  1  0  0  0
  7  8  1  0  0  0
  7 40  1  0  0  0
  8  9  1  0  0  0
  8 16  1  0  0  0
  8 41  1  0  0  0
  9 15  1  0  0  0
  9 10  2  0  0  0
 10 11  1  0  0  0
 10 42  1  0  0  0
 11 12  2  0  0  0
 11 43  1  0  0  0
 12 13  1  0  0  0
 12 14  1  0  0  0
 13 44  1  0  0  0
 14 15  2  0  0  0
 14 45  1  0  0  0
 15 46  1  0  0  0
 16 17  1  0  0  0
 16 47  1  0  0  0
 17 26  2  0  0  0
 17 18  1  0  0  0
 18 19  2  0  0  0
 18 48  1  0  0  0
 19 20  1  0  0  0
 19 49  1  0  0  0
 20 21  1  0  0  0
 20 25  2  0  0  0
 21 22  1  0  0  0
 21 23  1  0  0  0
 21 24  1  0  0  0
 25 26  1  0  0  0
 25 50  1  0  0  0
 26 27  1  0  0  0
 27 28  1  0  0  0
 27 51  1  0  0  0
M  CHG  1   2   1
M  END
> <s_m_source_file>
/home/user-home/yujie/0_PBCNetv2/data/FEP/eg5/inp_ligprep.csv

> <i_m_source_file_index>
2

> <i_lp_mmshare_version>
51139

> <i_f3d_flags>
0

> <s_epik_input>
W0NIM11bTkhdW0NIMl1bQ0BIXShbQ0gyXVtDSDJdMSlPW0NASF0oW0NASF0xMiljM2MoW2NIXVtjSF1jKEMoRikoRilGKVtjSF0zKVtOSF1bQ0BASF0yYzRbY0hdW2NIXWMoW09IXSlbY0hdW2NIXTQ=

> <s_epik_cmdline>
J2VwaWtfcHl0aG9uJywgJy1waHQnLCAnMi4wJywgJy1waCcsICc3LjQnLCAnLXRuJywgJzgnLCAnLW1hJywgJzIwMCcsICctaW1hZScsICc8aW5maWxlLm1hZT4nLCAnLW9tYWUnLCAnPG91dGZpbGUubWFlPic=

> <r_lp_tautomer_probability>
1

> <r_epik_Ionization_Penalty>
  0.0030

> <r_epik_Ionization_Penalty_Charging>
  0.0023

> <r_epik_Ionization_Penalty_Neutral>
  0.0006

> <r_epik_State_Penalty>
 -0.0000

> <r_epik_Charging_Adjusted_Penalty>
0.00234401

> <i_epik_Tot_Q>
1

> <i_epik_Tot_abs_Q>
1

> <s_lp_Force_Field>
OPLS3e

> <r_lp_Energy>
37.3959

> <b_lp_Chiralities_Consistent>
1

> <s_lp_Variant>
lig_eg5_CHEMBL1083517-1

> <s_i_glide_gridfile>
eg5-001-gridgen

> <i_i_glide_lignum>
2

> <i_i_glide_rotatable_bonds>
5

> <r_i_docking_score>
-7.6119853998067

> <r_i_glide_ligand_efficiency>
-0.271856621421668

> <r_i_glide_ligand_efficiency_sa>
-0.825516817623484

> <r_i_glide_ligand_efficiency_ln>
-1.7570697278783

> <r_i_glide_gscore>
-7.6119853998067

> <r_i_glide_lipo>
-4.10708623515213

> <r_i_glide_hbond>
0

> <r_i_glide_metal>
-0

> <r_i_glide_rewards>
-1.6651362333354

> <r_i_glide_evdw>
-41.6123085021973

> <r_i_glide_ecoul>
-0.0136037953197956

> <r_i_glide_erotb>
0.252416419235317

> <r_i_glide_esite>
-0.00952335614665323

> <r_i_glide_emodel>
-57.7614129314599

> <r_i_glide_energy>
-41.6259122975171

> <r_i_glide_einternal>
5.33281755447388

> <i_i_glide_confnum>
2

> <i_i_glide_posenum>
252

> <r_i_glide_eff_state_penalty>
-0

$$$$
