lig_eg5_CHEMBL1084431
                    3D
 Schrodinger Suite 2020-3.
 71 75  0  0  1  0            999 V2000
   30.0674   15.1014   17.7945 C   0  0  0  0  0  0
   29.1373   15.4324   18.9459 C   0  0  0  0  0  0
   27.7825   15.1041   18.8744 C   0  0  0  0  0  0
   26.9362   15.4031   19.9396 C   0  0  0  0  0  0
   27.4512   16.0198   21.0852 C   0  0  0  0  0  0
   26.5519   16.3106   22.2579 C   0  0  0  0  0  0
   25.6849   17.1782   22.1444 O   0  0  0  0  0  0
   26.7919   15.6339   23.4167 N   0  0  0  0  0  0
   27.3545   14.2740   23.4036 C   0  0  0  0  0  0
   28.7619   14.1598   24.0104 C   0  0  0  0  0  0
   29.2027   12.6908   23.9149 N   0  3  0  0  0  0
   26.2633   16.0665   24.7301 C   0  0  0  0  0  0
   26.4483   17.5574   25.1133 C   0  0  2  0  0  0
   27.9085   18.0110   24.9913 C   0  0  0  0  0  0
   28.0316   19.5027   25.3126 C   0  0  0  0  0  0
   27.3025   19.9610   26.6080 C   0  0  2  0  0  0
   28.1725   19.8843   27.8957 C   0  0  1  0  0  0
   29.5678   20.5014   27.8594 C   0  0  0  0  0  0
   30.4843   20.0518   28.8084 C   0  0  0  0  0  0
   31.7733   20.5555   28.8265 C   0  0  0  0  0  0
   32.1675   21.4952   27.8814 C   0  0  0  0  0  0
   31.2564   21.9708   26.9452 C   0  0  0  0  0  0
   29.9447   21.5006   26.9537 C   0  0  0  0  0  0
   27.4193   20.4581   29.0022 N   0  0  0  0  0  0
   26.1252   19.9875   29.2365 C   0  0  0  0  0  0
   25.6102   20.1518   30.5198 C   0  0  0  0  0  0
   24.4080   19.5531   30.8651 C   0  0  0  0  0  0
   23.7402   18.7479   29.9456 C   0  0  0  0  0  0
   22.4900   18.0147   30.4021 C   0  0  0  0  0  0
   21.9578   17.2503   29.4480 F   0  0  0  0  0  0
   22.7841   17.2443   31.4477 F   0  0  0  0  0  0
   21.5958   18.9108   30.7973 F   0  0  0  0  0  0
   24.2392   18.6310   28.6403 C   0  0  0  0  0  0
   25.4293   19.2609   28.2529 C   0  0  0  0  0  0
   25.9603   19.1697   26.8135 C   0  0  2  0  0  0
   26.0829   17.7798   26.4778 O   0  0  0  0  0  0
   28.8075   16.3583   21.1493 C   0  0  0  0  0  0
   29.6474   16.0692   20.0800 C   0  0  0  0  0  0
   29.9930   12.4889   24.5386 H   0  0  0  0  0  0
   29.4599   12.4400   22.9708 H   0  0  0  0  0  0
   29.5906   14.4583   17.0530 H   0  0  0  0  0  0
   30.9482   14.5749   18.1626 H   0  0  0  0  0  0
   30.4106   16.0160   17.3064 H   0  0  0  0  0  0
   27.3839   14.6077   17.9987 H   0  0  0  0  0  0
   25.8889   15.1395   19.8767 H   0  0  0  0  0  0
   26.6653   13.6201   23.9445 H   0  0  0  0  0  0
   27.3796   13.8717   22.3890 H   0  0  0  0  0  0
   29.5243   14.7290   23.4722 H   0  0  0  0  0  0
   28.7914   14.4350   25.0690 H   0  0  0  0  0  0
   25.2031   15.8253   24.7399 H   0  0  0  0  0  0
   26.7146   15.4595   25.5171 H   0  0  0  0  0  0
   25.8103   18.1449   24.4515 H   0  0  0  0  0  0
   28.5350   17.4243   25.6635 H   0  0  0  0  0  0
   28.2920   17.8309   23.9902 H   0  0  0  0  0  0
   29.0680   19.8227   25.2534 H   0  0  0  0  0  0
   27.5526   20.0410   24.4923 H   0  0  0  0  0  0
   27.0248   21.0031   26.4649 H   0  0  0  0  0  0
   28.3347   18.8266   28.1176 H   0  0  0  0  0  0
   30.2000   19.3018   29.5314 H   0  0  0  0  0  0
   32.4609   20.1909   29.5640 H   0  0  0  0  0  0
   33.1820   21.8663   27.8842 H   0  0  0  0  0  0
   31.5638   22.7077   26.2165 H   0  0  0  0  0  0
   29.2412   21.8898   26.2334 H   0  0  0  0  0  0
   27.9752   20.8469   29.7481 H   0  0  0  0  0  0
   26.1499   20.7200   31.2630 H   0  0  0  0  0  0
   24.0259   19.6676   31.8700 H   0  0  0  0  0  0
   23.7003   18.0481   27.9082 H   0  0  0  0  0  0
   25.2025   19.6100   26.1612 H   0  0  0  0  0  0
   29.2150   16.8503   22.0218 H   0  0  0  0  0  0
   30.6922   16.3333   20.1352 H   0  0  0  0  0  0
   28.4637   12.0748   24.2218 H   0  0  0  0  0  0
  1  2  1  0  0  0
  1 41  1  0  0  0
  1 42  1  0  0  0
  1 43  1  0  0  0
  2 38  1  0  0  0
  2  3  2  0  0  0
  3  4  1  0  0  0
  3 44  1  0  0  0
  4  5  2  0  0  0
  4 45  1  0  0  0
  5  6  1  0  0  0
  5 37  1  0  0  0
  6  7  2  0  0  0
  6  8  1  0  0  0
  8  9  1  0  0  0
  8 12  1  0  0  0
  9 10  1  0  0  0
  9 46  1  0  0  0
  9 47  1  0  0  0
 10 11  1  0  0  0
 10 48  1  0  0  0
 10 49  1  0  0  0
 11 39  1  0  0  0
 11 40  1  0  0  0
 11 71  1  0  0  0
 12 13  1  0  0  0
 12 50  1  0  0  0
 12 51  1  0  0  0
 13 36  1  0  0  0
 13 14  1  0  0  0
 13 52  1  0  0  0
 14 15  1  0  0  0
 14 53  1  0  0  0
 14 54  1  0  0  0
 15 16  1  0  0  0
 15 55  1  0  0  0
 15 56  1  0  0  0
 16 35  1  0  0  0
 16 17  1  0  0  0
 16 57  1  0  0  0
 17 18  1  0  0  0
 17 24  1  0  0  0
 17 58  1  0  0  0
 18 23  1  0  0  0
 18 19  2  0  0  0
 19 20  1  0  0  0
 19 59  1  0  0  0
 20 21  2  0  0  0
 20 60  1  0  0  0
 21 22  1  0  0  0
 21 61  1  0  0  0
 22 23  2  0  0  0
 22 62  1  0  0  0
 23 63  1  0  0  0
 24 25  1  0  0  0
 24 64  1  0  0  0
 25 34  2  0  0  0
 25 26  1  0  0  0
 26 27  2  0  0  0
 26 65  1  0  0  0
 27 28  1  0  0  0
 27 66  1  0  0  0
 28 29  1  0  0  0
 28 33  2  0  0  0
 29 30  1  0  0  0
 29 31  1  0  0  0
 29 32  1  0  0  0
 33 34  1  0  0  0
 33 67  1  0  0  0
 34 35  1  0  0  0
 35 36  1  0  0  0
 35 68  1  0  0  0
 37 38  2  0  0  0
 37 69  1  0  0  0
 38 70  1  0  0  0
M  CHG  1  11   1
M  END
> <s_m_source_file>
/home/user-home/yujie/0_PBCNetv2/data/FEP/eg5/inp_ligprep.csv

> <i_m_source_file_index>
28

> <i_lp_mmshare_version>
51139

> <i_f3d_flags>
0

> <s_epik_input>
W0NIM11jMVtjSF1bY0hdYyhbY0hdW2NIXTEpQyg9TylOKFtDSDJdW0NIMl1bTkgyXSlbQ0gyXVtDQEhdKFtDSDJdW0NIMl0yKU9bQ0BIXShbQ0BIXTIzKWM0YyhbY0hdW2NIXWMoQyhGKShGKUYpW2NIXTQpW05IXVtDQEBIXTNjNVtjSF1bY0hdW2NIXVtjSF1bY0hdNQ==

> <s_epik_cmdline>
J2VwaWtfcHl0aG9uJywgJy1waHQnLCAnMi4wJywgJy1waCcsICc3LjQnLCAnLXRuJywgJzgnLCAnLW1hJywgJzIwMCcsICctaW1hZScsICc8aW5maWxlLm1hZT4nLCAnLW9tYWUnLCAnPG91dGZpbGUubWFlPic=

> <r_epik_Ionization_Penalty>
  0.0063

> <r_epik_Ionization_Penalty_Charging>
  0.0063

> <r_epik_Ionization_Penalty_Neutral>
  0.0000

> <r_epik_State_Penalty>
  0.0046

> <r_epik_Charging_Adjusted_Penalty>
0.0108905

> <i_epik_Tot_Q>
1

> <i_epik_Tot_abs_Q>
1

> <s_lp_Force_Field>
OPLS3e

> <r_lp_Energy>
60.6422

> <b_lp_Chiralities_Consistent>
1

> <s_lp_Variant>
lig_eg5_CHEMBL1084431-1

> <s_i_glide_gridfile>
eg5-001-gridgen

> <i_i_glide_lignum>
36

> <i_i_glide_rotatable_bonds>
8

> <r_i_docking_score>
-7.67983437826711

> <r_i_glide_ligand_efficiency>
-0.20210090469124

> <r_i_glide_ligand_efficiency_sa>
-0.679458270439906

> <r_i_glide_ligand_efficiency_ln>
-1.65599820979287

> <r_i_glide_gscore>
-7.68445977826711

> <r_i_glide_lipo>
-4.01679244334947

> <r_i_glide_hbond>
-0.2

> <r_i_glide_metal>
-0

> <r_i_glide_rewards>
-0.94723607034696

> <r_i_glide_evdw>
-42.9714431762695

> <r_i_glide_ecoul>
-4.80328226089478

> <r_i_glide_erotb>
0.448633233377013

> <r_i_glide_esite>
-0.1

> <r_i_glide_emodel>
-63.6362123131289

> <r_i_glide_energy>
-47.7747254371643

> <r_i_glide_einternal>
18.2099494934082

> <i_i_glide_confnum>
135

> <i_i_glide_posenum>
223

> <r_i_glide_eff_state_penalty>
0.0046254

$$$$
