lig_eg5_CHEMBL1084115
                    3D
 Schrodinger Suite 2020-3.
 48 51  0  0  1  0            999 V2000
   22.9263   17.2477   32.0965 C   0  0  0  0  0  0
   22.6693   18.1824   30.8978 C   0  0  0  0  0  0
   21.9901   17.3545   29.7817 C   0  0  0  0  0  0
   21.6680   19.2583   31.3688 C   0  0  0  0  0  0
   23.9954   18.8215   30.4039 C   0  0  0  0  0  0
   24.5390   19.9244   31.0716 C   0  0  0  0  0  0
   25.7567   20.4629   30.6764 C   0  0  0  0  0  0
   26.4555   19.9386   29.5895 C   0  0  0  0  0  0
   25.9459   18.8230   28.9019 C   0  0  0  0  0  0
   24.7146   18.2983   29.3152 C   0  0  0  0  0  0
   26.8099   18.0975   27.8740 C   0  0  1  0  0  0
   26.0024   17.6442   26.7868 O   0  0  0  0  0  0
   26.7030   16.8270   25.8450 C   0  0  0  0  0  0
   27.8901   17.5999   25.2302 C   0  0  0  0  0  0
   28.7719   18.1979   26.3388 C   0  0  0  0  0  0
   27.9059   19.0258   27.3161 C   0  0  2  0  0  0
   28.6790   19.6877   28.4838 C   0  0  1  0  0  0
   29.8673   20.5200   28.0264 C   0  0  0  0  0  0
   29.8326   21.5433   27.0603 C   0  0  0  0  0  0
   31.0888   22.0323   26.7155 C   0  0  0  0  0  0
   32.3479   21.2458   27.5989 S   0  0  0  0  0  0
   31.1710   20.3378   28.4781 C   0  0  0  0  0  0
   27.7359   20.4556   29.3023 N   0  0  0  0  0  0
   22.0033   16.7850   32.4500 H   0  0  0  0  0  0
   23.3582   17.7807   32.9407 H   0  0  0  0  0  0
   23.6025   16.4442   31.8273 H   0  0  0  0  0  0
   22.5540   16.4439   29.5847 H   0  0  0  0  0  0
   21.9433   17.9103   28.8464 H   0  0  0  0  0  0
   20.9772   17.0475   30.0449 H   0  0  0  0  0  0
   20.6771   18.8455   31.5153 H   0  0  0  0  0  0
   21.5714   20.0438   30.6344 H   0  0  0  0  0  0
   21.9555   19.7231   32.3110 H   0  0  0  0  0  0
   24.0429   20.3541   31.9288 H   0  0  0  0  0  0
   26.1649   21.2714   31.2501 H   0  0  0  0  0  0
   24.3612   17.4192   28.8000 H   0  0  0  0  0  0
   27.2558   17.2370   28.3797 H   0  0  0  0  0  0
   27.0465   15.9105   26.3315 H   0  0  0  0  0  0
   26.0085   16.5193   25.0627 H   0  0  0  0  0  0
   28.4798   16.9408   24.5913 H   0  0  0  0  0  0
   27.5105   18.3975   24.5899 H   0  0  0  0  0  0
   29.2801   17.4007   26.8836 H   0  0  0  0  0  0
   29.5728   18.8028   25.9142 H   0  0  0  0  0  0
   27.4130   19.8145   26.7407 H   0  0  0  0  0  0
   29.0546   18.8892   29.1260 H   0  0  0  0  0  0
   28.9173   21.8800   26.5936 H   0  0  0  0  0  0
   31.3312   22.7713   25.9654 H   0  0  0  0  0  0
   31.5027   19.6439   29.2335 H   0  0  0  0  0  0
   28.1444   21.1852   29.8671 H   0  0  0  0  0  0
  1  2  1  0  0  0
  1 24  1  0  0  0
  1 25  1  0  0  0
  1 26  1  0  0  0
  2  3  1  0  0  0
  2  4  1  0  0  0
  2  5  1  0  0  0
  3 27  1  0  0  0
  3 28  1  0  0  0
  3 29  1  0  0  0
  4 30  1  0  0  0
  4 31  1  0  0  0
  4 32  1  0  0  0
  5 10  1  0  0  0
  5  6  2  0  0  0
  6  7  1  0  0  0
  6 33  1  0  0  0
  7  8  2  0  0  0
  7 34  1  0  0  0
  8 23  1  0  0  0
  8  9  1  0  0  0
  9 10  2  0  0  0
  9 11  1  0  0  0
 10 35  1  0  0  0
 11 16  1  0  0  0
 11 12  1  0  0  0
 11 36  1  0  0  0
 12 13  1  0  0  0
 13 14  1  0  0  0
 13 37  1  0  0  0
 13 38  1  0  0  0
 14 15  1  0  0  0
 14 39  1  0  0  0
 14 40  1  0  0  0
 15 16  1  0  0  0
 15 41  1  0  0  0
 15 42  1  0  0  0
 16 17  1  0  0  0
 16 43  1  0  0  0
 17 18  1  0  0  0
 17 23  1  0  0  0
 17 44  1  0  0  0
 18 22  2  0  0  0
 18 19  1  0  0  0
 19 20  2  0  0  0
 19 45  1  0  0  0
 20 21  1  0  0  0
 20 46  1  0  0  0
 21 22  1  0  0  0
 22 47  1  0  0  0
 23 48  1  0  0  0
M  END
> <s_m_source_file>
/home/user-home/yujie/0_PBCNetv2/data/FEP/eg5/inp_ligprep.csv

> <i_m_source_file_index>
19

> <i_lp_mmshare_version>
51139

> <i_f3d_flags>
0

> <s_epik_input>
W0NIM11DKFtDSDNdKShbQ0gzXSljKFtjSF1bY0hdMSlbY0hdYyhjMTIpW0NAQEhdM1tDQEhdKFtDSDJdW0NIMl1bQ0gyXU8zKVtDQEhdKFtOSF0yKWM0W2NIXVtjSF1zW2NIXTQ=

> <s_epik_cmdline>
J2VwaWtfcHl0aG9uJywgJy1waHQnLCAnMi4wJywgJy1waCcsICc3LjQnLCAnLXRuJywgJzgnLCAnLW1hJywgJzIwMCcsICctaW1hZScsICc8aW5maWxlLm1hZT4nLCAnLW9tYWUnLCAnPG91dGZpbGUubWFlPic=

> <r_epik_Ionization_Penalty>
  0.0010

> <r_epik_Ionization_Penalty_Charging>
  0.0000

> <r_epik_Ionization_Penalty_Neutral>
  0.0010

> <r_epik_State_Penalty>
  0.0006

> <r_epik_Charging_Adjusted_Penalty>
0.000635655

> <i_epik_Tot_Q>
0

> <i_epik_Tot_abs_Q>
0

> <s_lp_Force_Field>
OPLS3e

> <r_lp_Energy>
30.4305

> <b_lp_Chiralities_Consistent>
1

> <s_lp_Variant>
lig_eg5_CHEMBL1084115-1

> <s_i_glide_gridfile>
eg5-001-gridgen

> <i_i_glide_lignum>
26

> <i_i_glide_rotatable_bonds>
2

> <r_i_docking_score>
-8.47525985421436

> <r_i_glide_ligand_efficiency>
-0.368489558878885

> <r_i_glide_ligand_efficiency_sa>
-1.04793528782047

> <r_i_glide_ligand_efficiency_ln>
-2.04939468215655

> <r_i_glide_gscore>
-8.47589550921436

> <r_i_glide_lipo>
-5.25075763757112

> <r_i_glide_hbond>
0

> <r_i_glide_metal>
-0

> <r_i_glide_rewards>
-1.27757512572759

> <r_i_glide_evdw>
-41.4848976135254

> <r_i_glide_ecoul>
-0.322163909673691

> <r_i_glide_erotb>
0.175006721211681

> <r_i_glide_esite>
0

> <r_i_glide_emodel>
-58.1971918944998

> <r_i_glide_energy>
-41.8070615231991

> <r_i_glide_einternal>
0.981977045536041

> <i_i_glide_confnum>
1

> <i_i_glide_posenum>
261

> <r_i_glide_eff_state_penalty>
0.000635655

$$$$
