lig_eg5_CHEMBL1093087
                    3D
 Schrodinger Suite 2020-3.
 66 70  0  0  1  0            999 V2000
   29.2020   15.6441   28.3155 N   0  3  0  0  0  0
   28.2482   16.0973   27.2158 C   0  0  0  0  0  0
   28.8023   15.7493   25.8291 C   0  0  0  0  0  0
   27.8331   15.7334   24.7233 N   0  0  0  0  0  0
   26.4542   16.2242   24.9232 C   0  0  0  0  0  0
   26.2766   17.7329   25.2647 C   0  0  2  0  0  0
   27.4812   18.6164   24.8590 C   0  0  0  0  0  0
   27.3283   20.0483   25.3250 C   0  0  0  0  0  0
   26.8525   20.2292   26.7848 C   0  0  2  0  0  0
   27.8791   20.0547   27.9515 C   0  0  1  0  0  0
   29.3036   20.6084   27.8342 C   0  0  0  0  0  0
   29.6575   21.6428   26.9619 C   0  0  0  0  0  0
   30.9910   22.0331   26.8423 C   0  0  0  0  0  0
   31.9583   21.4446   27.6517 C   0  0  0  0  0  0
   31.6031   20.4725   28.5818 C   0  0  0  0  0  0
   30.2841   20.0442   28.6591 C   0  0  0  0  0  0
   27.2252   20.4726   29.1860 N   0  0  0  0  0  0
   25.9430   19.9732   29.4596 C   0  0  0  0  0  0
   25.4639   20.1115   30.7565 C   0  0  0  0  0  0
   24.2586   19.5286   31.1151 C   0  0  0  0  0  0
   23.5536   18.7419   30.2054 C   0  0  0  0  0  0
   22.3026   18.0235   30.6911 C   0  0  0  0  0  0
   21.7266   17.2685   29.7544 F   0  0  0  0  0  0
   22.6278   17.2438   31.7206 F   0  0  0  0  0  0
   21.4289   18.9290   31.1155 F   0  0  0  0  0  0
   24.0163   18.6412   28.8871 C   0  0  0  0  0  0
   25.1916   19.2885   28.4789 C   0  0  0  0  0  0
   25.6423   19.2776   27.0157 C   0  0  2  0  0  0
   25.9801   17.9302   26.6579 O   0  0  0  0  0  0
   28.3603   15.6041   23.4060 C   0  0  0  0  0  0
   27.7579   16.2402   22.3064 C   0  0  0  0  0  0
   28.3035   16.1396   21.0298 C   0  0  0  0  0  0
   29.4588   15.3901   20.8280 C   0  0  0  0  0  0
   30.0623   14.7315   21.8925 C   0  0  0  0  0  0
   29.5159   14.8380   23.1688 C   0  0  0  0  0  0
   28.8375   15.8605   29.2325 H   0  0  0  0  0  0
   30.1078   16.0829   28.2152 H   0  0  0  0  0  0
   27.2907   15.6464   27.4432 H   0  0  0  0  0  0
   28.1762   17.1631   27.3541 H   0  0  0  0  0  0
   29.5955   16.4601   25.5869 H   0  0  0  0  0  0
   29.3036   14.7936   25.8728 H   0  0  0  0  0  0
   25.8451   15.9788   24.0526 H   0  0  0  0  0  0
   26.0021   15.6252   25.7091 H   0  0  0  0  0  0
   25.3984   18.0518   24.6985 H   0  0  0  0  0  0
   28.4152   18.2445   25.2673 H   0  0  0  0  0  0
   27.6087   18.6083   23.7772 H   0  0  0  0  0  0
   28.2461   20.5846   25.1175 H   0  0  0  0  0  0
   26.5646   20.4791   24.6791 H   0  0  0  0  0  0
   26.4623   21.2438   26.8549 H   0  0  0  0  0  0
   28.0506   18.9941   28.0801 H   0  0  0  0  0  0
   28.9111   22.1448   26.3654 H   0  0  0  0  0  0
   31.2758   22.7921   26.1263 H   0  0  0  0  0  0
   32.9901   21.7583   27.5746 H   0  0  0  0  0  0
   32.3510   20.0456   29.2348 H   0  0  0  0  0  0
   30.0225   19.2708   29.3659 H   0  0  0  0  0  0
   27.8351   20.8124   29.9139 H   0  0  0  0  0  0
   26.0154   20.6668   31.5003 H   0  0  0  0  0  0
   23.9016   19.6424   32.1283 H   0  0  0  0  0  0
   23.4496   18.0797   28.1587 H   0  0  0  0  0  0
   24.7993   19.6091   26.4047 H   0  0  0  0  0  0
   26.8756   16.8513   22.4202 H   0  0  0  0  0  0
   27.8366   16.6478   20.1990 H   0  0  0  0  0  0
   29.8823   15.3120   19.8377 H   0  0  0  0  0  0
   30.9490   14.1359   21.7279 H   0  0  0  0  0  0
   29.9996   14.2962   23.9642 H   0  0  0  0  0  0
   29.3407   14.6446   28.2649 H   0  0  0  0  0  0
  1 36  1  0  0  0
  1 37  1  0  0  0
  1  2  1  0  0  0
  1 66  1  0  0  0
  2  3  1  0  0  0
  2 38  1  0  0  0
  2 39  1  0  0  0
  3  4  1  0  0  0
  3 40  1  0  0  0
  3 41  1  0  0  0
  4  5  1  0  0  0
  4 30  1  0  0  0
  5  6  1  0  0  0
  5 42  1  0  0  0
  5 43  1  0  0  0
  6 29  1  0  0  0
  6  7  1  0  0  0
  6 44  1  0  0  0
  7  8  1  0  0  0
  7 45  1  0  0  0
  7 46  1  0  0  0
  8  9  1  0  0  0
  8 47  1  0  0  0
  8 48  1  0  0  0
  9 28  1  0  0  0
  9 10  1  0  0  0
  9 49  1  0  0  0
 10 11  1  0  0  0
 10 17  1  0  0  0
 10 50  1  0  0  0
 11 16  1  0  0  0
 11 12  2  0  0  0
 12 13  1  0  0  0
 12 51  1  0  0  0
 13 14  2  0  0  0
 13 52  1  0  0  0
 14 15  1  0  0  0
 14 53  1  0  0  0
 15 16  2  0  0  0
 15 54  1  0  0  0
 16 55  1  0  0  0
 17 18  1  0  0  0
 17 56  1  0  0  0
 18 27  2  0  0  0
 18 19  1  0  0  0
 19 20  2  0  0  0
 19 57  1  0  0  0
 20 21  1  0  0  0
 20 58  1  0  0  0
 21 22  1  0  0  0
 21 26  2  0  0  0
 22 23  1  0  0  0
 22 24  1  0  0  0
 22 25  1  0  0  0
 26 27  1  0  0  0
 26 59  1  0  0  0
 27 28  1  0  0  0
 28 29  1  0  0  0
 28 60  1  0  0  0
 30 35  1  0  0  0
 30 31  2  0  0  0
 31 32  1  0  0  0
 31 61  1  0  0  0
 32 33  2  0  0  0
 32 62  1  0  0  0
 33 34  1  0  0  0
 33 63  1  0  0  0
 34 35  2  0  0  0
 34 64  1  0  0  0
 35 65  1  0  0  0
M  CHG  1   1   1
M  END
> <s_m_source_file>
/home/user-home/yujie/0_PBCNetv2/data/FEP/eg5/inp_ligprep.csv

> <i_m_source_file_index>
21

> <i_lp_mmshare_version>
51139

> <i_f3d_flags>
0

> <s_epik_input>
W2NIXTFbY0hdW2NIXVtjSF1bY0hdYzFOKFtDSDJdW0NIMl1bTkgyXSlbQ0gyXVtDQEhdKFtDSDJdW0NIMl0yKU9bQ0BIXShbQ0BIXTIzKWM0YyhbY0hdW2NIXWMoQyhGKShGKUYpW2NIXTQpW05IXVtDQEBIXTNjNVtjSF1bY0hdW2NIXVtjSF1bY0hdNQ==

> <s_epik_cmdline>
J2VwaWtfcHl0aG9uJywgJy1waHQnLCAnMi4wJywgJy1waCcsICc3LjQnLCAnLXRuJywgJzgnLCAnLW1hJywgJzIwMCcsICctaW1hZScsICc8aW5maWxlLm1hZT4nLCAnLW9tYWUnLCAnPG91dGZpbGUubWFlPic=

> <r_lp_tautomer_probability>
1

> <r_epik_Ionization_Penalty>
  0.0028

> <r_epik_Ionization_Penalty_Charging>
  0.0028

> <r_epik_Ionization_Penalty_Neutral>
  0.0000

> <r_epik_State_Penalty>
 -0.0000

> <r_epik_Charging_Adjusted_Penalty>
0.00279424

> <i_epik_Tot_Q>
1

> <i_epik_Tot_abs_Q>
1

> <s_lp_Force_Field>
OPLS3e

> <r_lp_Energy>
56.7313

> <b_lp_Chiralities_Consistent>
1

> <s_lp_Variant>
lig_eg5_CHEMBL1093087-1

> <s_i_glide_gridfile>
eg5-001-gridgen

> <i_i_glide_lignum>
28

> <i_i_glide_rotatable_bonds>
7

> <r_i_docking_score>
-7.75136254922137

> <r_i_glide_ligand_efficiency>
-0.221467501406325

> <r_i_glide_ligand_efficiency_sa>
-0.724434881793334

> <r_i_glide_ligand_efficiency_ln>
-1.70159611177702

> <r_i_glide_gscore>
-7.75136254922137

> <r_i_glide_lipo>
-4.19410335512041

> <r_i_glide_hbond>
0

> <r_i_glide_metal>
-0

> <r_i_glide_rewards>
-1.36355884555037

> <r_i_glide_evdw>
-43.0356597900391

> <r_i_glide_ecoul>
-3.18448901176453

> <r_i_glide_erotb>
0.435755992716042

> <r_i_glide_esite>
0

> <r_i_glide_emodel>
-61.3876256467511

> <r_i_glide_energy>
-46.2201488018036

> <r_i_glide_einternal>
17.2561912536621

> <i_i_glide_confnum>
96

> <i_i_glide_posenum>
68

> <r_i_glide_eff_state_penalty>
-0

$$$$
