lig_eg5_CHEMBL1082249
                    3D
 Schrodinger Suite 2020-3.
 58 61  0  0  1  0            999 V2000
   23.6316   11.6898   22.7642 C   0  0  0  0  0  0
   24.9021   12.4337   23.1586 C   0  0  0  0  0  0
   25.3160   12.3829   24.3163 O   0  0  0  0  0  0
   25.5100   13.1321   22.1836 N   0  0  0  0  0  0
   26.7421   13.9117   22.3270 C   0  0  0  0  0  0
   26.6548   15.0380   23.3842 C   0  0  0  0  0  0
   27.5758   14.7206   24.5822 N   0  3  0  0  0  0
   27.2491   15.4300   25.9164 C   0  0  0  0  0  0
   26.9340   16.9331   25.7601 C   0  0  2  0  0  0
   28.1802   17.7618   25.3934 C   0  0  0  0  0  0
   27.8487   19.2615   25.3772 C   0  0  0  0  0  0
   27.1150   19.7340   26.6659 C   0  0  2  0  0  0
   27.9803   19.8350   27.9575 C   0  0  1  0  0  0
   29.3435   20.5214   27.8441 C   0  0  0  0  0  0
   30.3572   20.1125   28.7143 C   0  0  0  0  0  0
   31.6264   20.6693   28.6206 C   0  0  0  0  0  0
   31.8983   21.6111   27.6327 C   0  0  0  0  0  0
   30.8934   22.0427   26.7713 C   0  0  0  0  0  0
   29.6055   21.5266   26.9044 C   0  0  0  0  0  0
   27.1557   20.4082   29.0221 N   0  0  0  0  0  0
   25.8967   19.8253   29.2703 C   0  0  0  0  0  0
   25.2819   20.0439   30.5100 C   0  0  0  0  0  0
   25.8578   20.8437   31.4311 F   0  0  0  0  0  0
   24.0694   19.4310   30.8157 C   0  0  0  0  0  0
   23.4575   18.6029   29.8830 C   0  0  0  0  0  0
   21.8480   17.6816   30.3153 Br  0  0  0  0  0  0
   24.0370   18.4396   28.6292 C   0  0  0  0  0  0
   25.2573   19.0408   28.2898 C   0  0  0  0  0  0
   25.9184   18.7725   26.9360 C   0  0  2  0  0  0
   26.3877   17.4197   26.9829 O   0  0  0  0  0  0
   27.5186   13.7227   24.7532 H   0  0  0  0  0  0
   23.5515   11.5730   21.6813 H   0  0  0  0  0  0
   22.7530   12.2322   23.1151 H   0  0  0  0  0  0
   23.6242   10.6944   23.2103 H   0  0  0  0  0  0
   25.0918   13.1178   21.2653 H   0  0  0  0  0  0
   27.5704   13.2260   22.5233 H   0  0  0  0  0  0
   26.9558   14.3553   21.3531 H   0  0  0  0  0  0
   26.9861   16.0050   23.0016 H   0  0  0  0  0  0
   25.6502   15.1357   23.8004 H   0  0  0  0  0  0
   26.4026   14.8759   26.3133 H   0  0  0  0  0  0
   28.1014   15.2440   26.5719 H   0  0  0  0  0  0
   26.1658   17.0451   24.9940 H   0  0  0  0  0  0
   28.9826   17.5624   26.1056 H   0  0  0  0  0  0
   28.5654   17.4596   24.4187 H   0  0  0  0  0  0
   28.7604   19.8220   25.1858 H   0  0  0  0  0  0
   27.2042   19.4662   24.5192 H   0  0  0  0  0  0
   26.6961   20.7193   26.4544 H   0  0  0  0  0  0
   28.2219   18.8137   28.2631 H   0  0  0  0  0  0
   30.1636   19.3590   29.4653 H   0  0  0  0  0  0
   32.4021   20.3581   29.3033 H   0  0  0  0  0  0
   32.8962   22.0179   27.5447 H   0  0  0  0  0  0
   31.1139   22.7758   26.0063 H   0  0  0  0  0  0
   28.8225   21.8829   26.2502 H   0  0  0  0  0  0
   27.6666   20.8504   29.7721 H   0  0  0  0  0  0
   23.6146   19.5890   31.7820 H   0  0  0  0  0  0
   23.5256   17.8172   27.9153 H   0  0  0  0  0  0
   25.1703   18.8837   26.1455 H   0  0  0  0  0  0
   28.5330   14.9223   24.3219 H   0  0  0  0  0  0
  1  2  1  0  0  0
  1 32  1  0  0  0
  1 33  1  0  0  0
  1 34  1  0  0  0
  2  3  2  0  0  0
  2  4  1  0  0  0
  4  5  1  0  0  0
  4 35  1  0  0  0
  5  6  1  0  0  0
  5 36  1  0  0  0
  5 37  1  0  0  0
  6  7  1  0  0  0
  6 38  1  0  0  0
  6 39  1  0  0  0
  7 31  1  0  0  0
  7  8  1  0  0  0
  7 58  1  0  0  0
  8  9  1  0  0  0
  8 40  1  0  0  0
  8 41  1  0  0  0
  9 30  1  0  0  0
  9 10  1  0  0  0
  9 42  1  0  0  0
 10 11  1  0  0  0
 10 43  1  0  0  0
 10 44  1  0  0  0
 11 12  1  0  0  0
 11 45  1  0  0  0
 11 46  1  0  0  0
 12 29  1  0  0  0
 12 13  1  0  0  0
 12 47  1  0  0  0
 13 14  1  0  0  0
 13 20  1  0  0  0
 13 48  1  0  0  0
 14 19  1  0  0  0
 14 15  2  0  0  0
 15 16  1  0  0  0
 15 49  1  0  0  0
 16 17  2  0  0  0
 16 50  1  0  0  0
 17 18  1  0  0  0
 17 51  1  0  0  0
 18 19  2  0  0  0
 18 52  1  0  0  0
 19 53  1  0  0  0
 20 21  1  0  0  0
 20 54  1  0  0  0
 21 28  2  0  0  0
 21 22  1  0  0  0
 22 23  1  0  0  0
 22 24  2  0  0  0
 24 25  1  0  0  0
 24 55  1  0  0  0
 25 26  1  0  0  0
 25 27  2  0  0  0
 27 28  1  0  0  0
 27 56  1  0  0  0
 28 29  1  0  0  0
 29 30  1  0  0  0
 29 57  1  0  0  0
M  CHG  1   7   1
M  END
> <s_m_source_file>
/home/user-home/yujie/0_PBCNetv2/data/FEP/eg5/inp_ligprep.csv

> <i_m_source_file_index>
25

> <i_lp_mmshare_version>
51139

> <i_f3d_flags>
0

> <s_epik_input>
W0NIM11DKD1PKVtOSF1bQ0gyXVtDSDJdW05IXVtDSDJdW0NASF0oW0NIMl1bQ0gyXTEpT1tDQEhdKFtDQEhdMTIpYzNjKGMoRilbY0hdYyhCcilbY0hdMylbTkhdW0NAQEhdMmM0W2NIXVtjSF1bY0hdW2NIXVtjSF00

> <s_epik_cmdline>
J2VwaWtfcHl0aG9uJywgJy1waHQnLCAnMi4wJywgJy1waCcsICc3LjQnLCAnLXRuJywgJzgnLCAnLW1hJywgJzIwMCcsICctaW1hZScsICc8aW5maWxlLm1hZT4nLCAnLW9tYWUnLCAnPG91dGZpbGUubWFlPic=

> <r_epik_Ionization_Penalty>
  0.0077

> <r_epik_Ionization_Penalty_Charging>
  0.0077

> <r_epik_Ionization_Penalty_Neutral>
  0.0000

> <r_epik_State_Penalty>
  0.0057

> <r_epik_Charging_Adjusted_Penalty>
0.0133797

> <i_epik_Tot_Q>
1

> <i_epik_Tot_abs_Q>
1

> <s_lp_Force_Field>
OPLS3e

> <r_lp_Energy>
32.9399

> <b_lp_Chiralities_Consistent>
1

> <s_lp_Variant>
lig_eg5_CHEMBL1082249-1

> <s_i_glide_gridfile>
eg5-001-gridgen

> <i_i_glide_lignum>
33

> <i_i_glide_rotatable_bonds>
7

> <r_i_docking_score>
-6.67457497065093

> <r_i_glide_ligand_efficiency>
-0.222485832355031

> <r_i_glide_ligand_efficiency_sa>
-0.691315209623987

> <r_i_glide_ligand_efficiency_ln>
-1.51653615865104

> <r_i_glide_gscore>
-6.68030255065093

> <r_i_glide_lipo>
-4.20479743396114

> <r_i_glide_hbond>
0

> <r_i_glide_metal>
-0

> <r_i_glide_rewards>
-0.560686871595807

> <r_i_glide_evdw>
-44.5207328796387

> <r_i_glide_ecoul>
-1.48057377338409

> <r_i_glide_erotb>
0.533304464895562

> <r_i_glide_esite>
0

> <r_i_glide_emodel>
-60.4660505954858

> <r_i_glide_energy>
-46.0013066530228

> <r_i_glide_einternal>
8.88186168670654

> <i_i_glide_confnum>
62

> <i_i_glide_posenum>
245

> <r_i_glide_eff_state_penalty>
0.00572758

$$$$
