lig_eg5_CHEMBL1096003
                    3D
 Schrodinger Suite 2020-3.
 62 65  0  0  1  0            999 V2000
   28.4649   11.4363   23.6846 C   0  0  0  0  0  0
   27.0659   12.0925   23.7010 N   0  3  0  0  0  0
   26.0735   11.2558   24.5393 C   0  0  0  0  0  0
   26.5608   12.3658   22.2655 C   0  0  0  0  0  0
   25.3359   13.3036   22.2536 C   0  0  0  0  0  0
   25.7673   15.0336   22.8708 S   0  0  0  0  0  0
   27.0493   15.4301   22.2763 O   0  0  0  0  0  0
   24.5796   15.8709   22.7164 O   0  0  0  0  0  0
   26.0132   14.8205   24.5997 N   0  0  1  0  0  0
   27.0925   15.6091   25.2428 C   0  0  0  0  0  0
   26.7798   17.1261   25.2762 C   0  0  2  0  0  0
   28.0542   17.9432   25.0072 C   0  0  0  0  0  0
   27.7850   19.4453   25.1374 C   0  0  0  0  0  0
   27.0761   19.8212   26.4653 C   0  0  2  0  0  0
   27.9548   19.7965   27.7548 C   0  0  1  0  0  0
   29.3259   20.4871   27.7021 C   0  0  0  0  0  0
   29.6136   21.5255   26.8059 C   0  0  0  0  0  0
   30.9065   22.0317   26.7154 C   0  0  0  0  0  0
   31.8950   21.5629   27.5781 C   0  0  0  0  0  0
   31.6012   20.5878   28.5240 C   0  0  0  0  0  0
   30.3222   20.0439   28.5779 C   0  0  0  0  0  0
   27.1435   20.2770   28.8733 N   0  0  0  0  0  0
   25.8777   19.6941   29.0763 C   0  0  0  0  0  0
   25.2804   19.8039   30.3385 C   0  0  0  0  0  0
   25.8676   20.5282   31.3131 F   0  0  0  0  0  0
   24.0729   19.1653   30.6074 C   0  0  0  0  0  0
   23.4236   18.4647   29.5986 C   0  0  0  0  0  0
   21.9433   17.6442   29.9297 Cl  0  0  0  0  0  0
   23.9662   18.4470   28.3156 C   0  0  0  0  0  0
   25.2052   19.0343   28.0298 C   0  0  0  0  0  0
   25.8407   18.8862   26.6460 C   0  0  2  0  0  0
   26.2263   17.5076   26.5347 O   0  0  0  0  0  0
   28.3854   10.4730   23.1796 H   0  0  0  0  0  0
   28.7982   11.3126   24.7146 H   0  0  0  0  0  0
   29.1441   12.1077   23.1561 H   0  0  0  0  0  0
   25.8981   10.3132   24.0198 H   0  0  0  0  0  0
   25.1521   11.8245   24.6552 H   0  0  0  0  0  0
   26.5278   11.0867   25.5141 H   0  0  0  0  0  0
   27.3981   12.8189   21.7270 H   0  0  0  0  0  0
   26.3543   11.3904   21.8205 H   0  0  0  0  0  0
   24.9764   13.4318   21.2329 H   0  0  0  0  0  0
   24.4957   12.9329   22.8372 H   0  0  0  0  0  0
   25.1342   14.8977   25.1179 H   0  0  0  0  0  0
   27.2327   15.2443   26.2627 H   0  0  0  0  0  0
   28.0180   15.4080   24.7030 H   0  0  0  0  0  0
   26.0572   17.3529   24.4894 H   0  0  0  0  0  0
   28.8530   17.6340   25.6835 H   0  0  0  0  0  0
   28.4031   17.7219   23.9963 H   0  0  0  0  0  0
   28.7157   19.9831   24.9821 H   0  0  0  0  0  0
   27.1410   19.7475   24.3094 H   0  0  0  0  0  0
   26.6935   20.8365   26.3435 H   0  0  0  0  0  0
   28.1919   18.7501   27.9654 H   0  0  0  0  0  0
   28.8504   21.9117   26.1462 H   0  0  0  0  0  0
   31.1493   22.7784   25.9705 H   0  0  0  0  0  0
   32.8963   21.9629   27.5202 H   0  0  0  0  0  0
   32.3666   20.2393   29.1993 H   0  0  0  0  0  0
   30.1099   19.2629   29.2952 H   0  0  0  0  0  0
   27.6617   20.6502   29.6540 H   0  0  0  0  0  0
   23.6372   19.2243   31.5923 H   0  0  0  0  0  0
   23.3942   18.0210   27.5129 H   0  0  0  0  0  0
   25.0978   19.1188   25.8803 H   0  0  0  0  0  0
   27.1668   12.9912   24.1586 H   0  0  0  0  0  0
  1  2  1  0  0  0
  1 33  1  0  0  0
  1 34  1  0  0  0
  1 35  1  0  0  0
  2  3  1  0  0  0
  2  4  1  0  0  0
  2 62  1  0  0  0
  3 36  1  0  0  0
  3 37  1  0  0  0
  3 38  1  0  0  0
  4  5  1  0  0  0
  4 39  1  0  0  0
  4 40  1  0  0  0
  5  6  1  0  0  0
  5 41  1  0  0  0
  5 42  1  0  0  0
  6  7  2  0  0  0
  6  8  2  0  0  0
  6  9  1  0  0  0
  9 10  1  0  0  0
  9 43  1  0  0  0
 10 11  1  0  0  0
 10 44  1  0  0  0
 10 45  1  0  0  0
 11 32  1  0  0  0
 11 12  1  0  0  0
 11 46  1  0  0  0
 12 13  1  0  0  0
 12 47  1  0  0  0
 12 48  1  0  0  0
 13 14  1  0  0  0
 13 49  1  0  0  0
 13 50  1  0  0  0
 14 31  1  0  0  0
 14 15  1  0  0  0
 14 51  1  0  0  0
 15 16  1  0  0  0
 15 22  1  0  0  0
 15 52  1  0  0  0
 16 21  1  0  0  0
 16 17  2  0  0  0
 17 18  1  0  0  0
 17 53  1  0  0  0
 18 19  2  0  0  0
 18 54  1  0  0  0
 19 20  1  0  0  0
 19 55  1  0  0  0
 20 21  2  0  0  0
 20 56  1  0  0  0
 21 57  1  0  0  0
 22 23  1  0  0  0
 22 58  1  0  0  0
 23 30  2  0  0  0
 23 24  1  0  0  0
 24 25  1  0  0  0
 24 26  2  0  0  0
 26 27  1  0  0  0
 26 59  1  0  0  0
 27 28  1  0  0  0
 27 29  2  0  0  0
 29 30  1  0  0  0
 29 60  1  0  0  0
 30 31  1  0  0  0
 31 32  1  0  0  0
 31 61  1  0  0  0
M  CHG  1   2   1
M  END
> <s_m_source_file>
/home/user-home/yujie/0_PBCNetv2/data/FEP/eg5/inp_ligprep.csv

> <i_m_source_file_index>
4

> <i_lp_mmshare_version>
51139

> <i_f3d_flags>
0

> <s_epik_input>
W0NIM11OKFtDSDNdKVtDSDJdW0NIMl1TKD1PKSg9TylbTkhdW0NIMl1bQ0BIXShbQ0gyXVtDSDJdMSlPW0NASF0oW0NASF0xMiljM2MoYyhGKVtjSF1jKENsKVtjSF0zKVtOSF1bQ0BASF0yYzRbY0hdW2NIXVtjSF1bY0hdW2NIXTQ=

> <s_epik_cmdline>
J2VwaWtfcHl0aG9uJywgJy1waHQnLCAnMi4wJywgJy1waCcsICc3LjQnLCAnLXRuJywgJzgnLCAnLW1hJywgJzIwMCcsICctaW1hZScsICc8aW5maWxlLm1hZT4nLCAnLW9tYWUnLCAnPG91dGZpbGUubWFlPic=

> <r_epik_Ionization_Penalty>
  0.1090

> <r_epik_Ionization_Penalty_Charging>
  0.1079

> <r_epik_Ionization_Penalty_Neutral>
  0.0011

> <r_epik_State_Penalty>
  0.0977

> <r_epik_Charging_Adjusted_Penalty>
0.205654

> <i_epik_Tot_Q>
1

> <i_epik_Tot_abs_Q>
1

> <s_lp_Force_Field>
OPLS3e

> <r_lp_Energy>
47.7372

> <b_lp_Chiralities_Consistent>
1

> <s_lp_Variant>
lig_eg5_CHEMBL1096003-1

> <s_i_glide_gridfile>
eg5-001-gridgen

> <i_i_glide_lignum>
4

> <i_i_glide_rotatable_bonds>
7

> <r_i_docking_score>
-6.0540953496611

> <r_i_glide_ligand_efficiency>
-0.189190479676909

> <r_i_glide_ligand_efficiency_sa>
-0.600642332229099

> <r_i_glide_ligand_efficiency_ln>
-1.35567697719553

> <r_i_glide_gscore>
-6.1518271496611

> <r_i_glide_lipo>
-3.82261668967684

> <r_i_glide_hbond>
0

> <r_i_glide_metal>
-0

> <r_i_glide_rewards>
-0.501971912425385

> <r_i_glide_evdw>
-41.2720794677734

> <r_i_glide_ecoul>
-1.88204956054688

> <r_i_glide_erotb>
0.521998501557491

> <r_i_glide_esite>
-0.00332564164566155

> <r_i_glide_emodel>
-56.8504670590708

> <r_i_glide_energy>
-43.1541290283203

> <r_i_glide_einternal>
10.3125095367432

> <i_i_glide_confnum>
119

> <i_i_glide_posenum>
246

> <r_i_glide_eff_state_penalty>
0.0977318

$$$$
