lig_eg5_CHEMBL1085692
                    3D
 Schrodinger Suite 2020-3.
 64 67  0  0  1  0            999 V2000
   26.9819   11.1694   23.3917 C   0  0  0  0  0  0
   28.4999   11.4210   23.5228 N   0  3  0  0  0  0
   29.1943   10.1961   24.1555 C   0  0  0  0  0  0
   29.1865   11.8139   22.1943 C   0  0  0  0  0  0
   28.6820   13.1613   21.6309 C   0  0  0  0  0  0
   28.8908   14.3868   22.5582 C   0  0  0  0  0  0
   27.7000   14.7416   23.4592 C   0  0  0  0  0  0
   26.5527   14.7105   23.0184 O   0  0  0  0  0  0
   27.9863   15.1127   24.7158 N   0  0  0  0  0  0
   26.9997   15.5763   25.6995 C   0  0  0  0  0  0
   26.6355   17.0763   25.6117 C   0  0  2  0  0  0
   27.8535   17.9792   25.3101 C   0  0  0  0  0  0
   27.4701   19.4594   25.3760 C   0  0  0  0  0  0
   26.7955   19.8151   26.7227 C   0  0  2  0  0  0
   27.6878   19.7801   28.0033 C   0  0  1  0  0  0
   29.0856   20.4045   27.9512 C   0  0  0  0  0  0
   29.4309   21.4158   27.0472 C   0  0  0  0  0  0
   30.7460   21.8645   26.9733 C   0  0  0  0  0  0
   31.6994   21.3778   27.8616 C   0  0  0  0  0  0
   31.3492   20.4317   28.8163 C   0  0  0  0  0  0
   30.0517   19.9295   28.8454 C   0  0  0  0  0  0
   26.8894   20.2958   29.1135 N   0  0  0  0  0  0
   25.6216   19.7186   29.3305 C   0  0  0  0  0  0
   25.0208   19.8849   30.5828 C   0  0  0  0  0  0
   25.6031   20.6650   31.5155 F   0  0  0  0  0  0
   23.8179   19.2520   30.8805 C   0  0  0  0  0  0
   23.2008   18.4648   29.9169 C   0  0  0  0  0  0
   21.6018   17.5210   30.3299 Br  0  0  0  0  0  0
   23.7553   18.3669   28.6447 C   0  0  0  0  0  0
   24.9611   19.0004   28.3134 C   0  0  0  0  0  0
   25.5881   18.8476   26.9235 C   0  0  2  0  0  0
   26.0164   17.4832   26.8370 O   0  0  0  0  0  0
   26.8373   10.3327   22.7074 H   0  0  0  0  0  0
   26.5041   12.0700   23.0109 H   0  0  0  0  0  0
   26.6046   10.9388   24.3888 H   0  0  0  0  0  0
   29.0804    9.3478   23.4799 H   0  0  0  0  0  0
   28.7204   10.0037   25.1169 H   0  0  0  0  0  0
   30.2459   10.4415   24.3059 H   0  0  0  0  0  0
   30.2549   11.8685   22.4167 H   0  0  0  0  0  0
   29.0099   10.9846   21.5059 H   0  0  0  0  0  0
   29.2432   13.3432   20.7133 H   0  0  0  0  0  0
   27.6480   13.0805   21.2913 H   0  0  0  0  0  0
   29.8103   14.2904   23.1353 H   0  0  0  0  0  0
   29.0243   15.2704   21.9327 H   0  0  0  0  0  0
   28.9498   15.1104   25.0146 H   0  0  0  0  0  0
   26.0828   14.9843   25.6383 H   0  0  0  0  0  0
   27.4221   15.3871   26.6864 H   0  0  0  0  0  0
   25.9152   17.1793   24.7977 H   0  0  0  0  0  0
   28.6603   17.7656   26.0146 H   0  0  0  0  0  0
   28.2504   17.7570   24.3180 H   0  0  0  0  0  0
   28.3572   20.0525   25.1721 H   0  0  0  0  0  0
   26.7773   19.6878   24.5628 H   0  0  0  0  0  0
   26.3974   20.8284   26.6207 H   0  0  0  0  0  0
   27.8889   18.7282   28.2208 H   0  0  0  0  0  0
   28.6961   21.8363   26.3779 H   0  0  0  0  0  0
   31.0267   22.5940   26.2276 H   0  0  0  0  0  0
   32.7160   21.7416   27.8132 H   0  0  0  0  0  0
   32.0889   20.0613   29.5106 H   0  0  0  0  0  0
   29.8009   19.1620   29.5619 H   0  0  0  0  0  0
   27.4296   20.6430   29.8935 H   0  0  0  0  0  0
   23.3726   19.3644   31.8580 H   0  0  0  0  0  0
   23.2302   17.7759   27.9143 H   0  0  0  0  0  0
   24.8342   19.0446   26.1571 H   0  0  0  0  0  0
   28.6384   12.1861   24.1717 H   0  0  0  0  0  0
  1  2  1  0  0  0
  1 33  1  0  0  0
  1 34  1  0  0  0
  1 35  1  0  0  0
  2  3  1  0  0  0
  2  4  1  0  0  0
  2 64  1  0  0  0
  3 36  1  0  0  0
  3 37  1  0  0  0
  3 38  1  0  0  0
  4  5  1  0  0  0
  4 39  1  0  0  0
  4 40  1  0  0  0
  5  6  1  0  0  0
  5 41  1  0  0  0
  5 42  1  0  0  0
  6  7  1  0  0  0
  6 43  1  0  0  0
  6 44  1  0  0  0
  7  8  2  0  0  0
  7  9  1  0  0  0
  9 10  1  0  0  0
  9 45  1  0  0  0
 10 11  1  0  0  0
 10 46  1  0  0  0
 10 47  1  0  0  0
 11 32  1  0  0  0
 11 12  1  0  0  0
 11 48  1  0  0  0
 12 13  1  0  0  0
 12 49  1  0  0  0
 12 50  1  0  0  0
 13 14  1  0  0  0
 13 51  1  0  0  0
 13 52  1  0  0  0
 14 31  1  0  0  0
 14 15  1  0  0  0
 14 53  1  0  0  0
 15 16  1  0  0  0
 15 22  1  0  0  0
 15 54  1  0  0  0
 16 21  1  0  0  0
 16 17  2  0  0  0
 17 18  1  0  0  0
 17 55  1  0  0  0
 18 19  2  0  0  0
 18 56  1  0  0  0
 19 20  1  0  0  0
 19 57  1  0  0  0
 20 21  2  0  0  0
 20 58  1  0  0  0
 21 59  1  0  0  0
 22 23  1  0  0  0
 22 60  1  0  0  0
 23 30  2  0  0  0
 23 24  1  0  0  0
 24 25  1  0  0  0
 24 26  2  0  0  0
 26 27  1  0  0  0
 26 61  1  0  0  0
 27 28  1  0  0  0
 27 29  2  0  0  0
 29 30  1  0  0  0
 29 62  1  0  0  0
 30 31  1  0  0  0
 31 32  1  0  0  0
 31 63  1  0  0  0
M  CHG  1   2   1
M  END
> <s_m_source_file>
/home/user-home/yujie/0_PBCNetv2/data/FEP/eg5/inp_ligprep.csv

> <i_m_source_file_index>
17

> <i_lp_mmshare_version>
51139

> <i_f3d_flags>
0

> <s_epik_input>
W0NIM11OKFtDSDNdKVtDSDJdW0NIMl1bQ0gyXUMoPU8pW05IXVtDSDJdW0NASF0oW0NIMl1bQ0gyXTEpT1tDQEhdKFtDQEhdMTIpYzNjKGMoRilbY0hdYyhCcilbY0hdMylbTkhdW0NAQEhdMmM0W2NIXVtjSF1bY0hdW2NIXVtjSF00

> <s_epik_cmdline>
J2VwaWtfcHl0aG9uJywgJy1waHQnLCAnMi4wJywgJy1waCcsICc3LjQnLCAnLXRuJywgJzgnLCAnLW1hJywgJzIwMCcsICctaW1hZScsICc8aW5maWxlLm1hZT4nLCAnLW9tYWUnLCAnPG91dGZpbGUubWFlPic=

> <r_epik_Ionization_Penalty>
  0.0076

> <r_epik_Ionization_Penalty_Charging>
  0.0076

> <r_epik_Ionization_Penalty_Neutral>
  0.0000

> <r_epik_State_Penalty>
  0.0057

> <r_epik_Charging_Adjusted_Penalty>
0.0132097

> <i_epik_Tot_Q>
1

> <i_epik_Tot_abs_Q>
1

> <s_lp_Force_Field>
OPLS3e

> <r_lp_Energy>
45.2687

> <b_lp_Chiralities_Consistent>
1

> <s_lp_Variant>
lig_eg5_CHEMBL1085692-1

> <s_i_glide_gridfile>
eg5-001-gridgen

> <i_i_glide_lignum>
23

> <i_i_glide_rotatable_bonds>
8

> <r_i_docking_score>
-6.26340067907115

> <r_i_glide_ligand_efficiency>
-0.195731271220973

> <r_i_glide_ligand_efficiency_sa>
-0.621408050960613

> <r_i_glide_ligand_efficiency_ln>
-1.40254614589824

> <r_i_glide_gscore>
-6.26905269907115

> <r_i_glide_lipo>
-3.86055540176583

> <r_i_glide_hbond>
0

> <r_i_glide_metal>
-0

> <r_i_glide_rewards>
-0.41575185430268

> <r_i_glide_evdw>
-44.1927223205566

> <r_i_glide_ecoul>
-1.99619674682617

> <r_i_glide_erotb>
0.560426754633708

> <r_i_glide_esite>
-0.0441065695845838

> <r_i_glide_emodel>
-60.4886351195136

> <r_i_glide_energy>
-46.1889190673828

> <r_i_glide_einternal>
9.56046867370605

> <i_i_glide_confnum>
32

> <i_i_glide_posenum>
236

> <r_i_glide_eff_state_penalty>
0.00565202

$$$$
