lig_eg5_CHEMBL1088740
                    3D
 Schrodinger Suite 2020-3.
 42 45  0  0  1  0            999 V2000
   22.1991   18.3600   30.8139 C   0  0  0  0  0  0
   23.5626   18.9173   30.4449 C   0  0  0  0  0  0
   24.0800   20.0261   31.1150 C   0  0  0  0  0  0
   25.3291   20.5310   30.7627 C   0  0  0  0  0  0
   26.0693   19.9429   29.7359 C   0  0  0  0  0  0
   25.5763   18.8016   29.0709 C   0  0  0  0  0  0
   24.3097   18.3201   29.4292 C   0  0  0  0  0  0
   26.4616   18.0347   28.0914 C   0  0  1  0  0  0
   25.6963   17.6437   26.9520 O   0  0  0  0  0  0
   26.4026   16.7634   26.0693 C   0  0  0  0  0  0
   27.6907   17.4282   25.5362 C   0  0  0  0  0  0
   28.5218   18.0111   26.6922 C   0  0  0  0  0  0
   27.6241   18.9051   27.5799 C   0  0  2  0  0  0
   28.3333   19.6108   28.7627 C   0  0  1  0  0  0
   29.5760   20.3850   28.3334 C   0  0  0  0  0  0
   29.5302   21.2444   27.2295 C   0  0  0  0  0  0
   30.6939   21.8543   26.7803 C   0  0  0  0  0  0
   31.8918   21.6434   27.4534 C   0  0  0  0  0  0
   31.9319   20.8440   28.5890 C   0  0  0  0  0  0
   30.7790   20.1980   29.0214 C   0  0  0  0  0  0
   27.3607   20.4433   29.4758 N   0  0  0  0  0  0
   21.6290   19.0534   31.4372 H   0  0  0  0  0  0
   22.3047   17.4068   31.3352 H   0  0  0  0  0  0
   21.6045   18.1779   29.9152 H   0  0  0  0  0  0
   23.5185   20.4912   31.9113 H   0  0  0  0  0  0
   25.7186   21.3842   31.2958 H   0  0  0  0  0  0
   23.9246   17.4384   28.9368 H   0  0  0  0  0  0
   26.8324   17.1502   28.6155 H   0  0  0  0  0  0
   26.6361   15.8305   26.5870 H   0  0  0  0  0  0
   25.7492   16.4986   25.2374 H   0  0  0  0  0  0
   28.2799   16.7090   24.9664 H   0  0  0  0  0  0
   27.4215   18.2255   24.8420 H   0  0  0  0  0  0
   28.9717   17.2158   27.2910 H   0  0  0  0  0  0
   29.3687   18.5733   26.2980 H   0  0  0  0  0  0
   27.1859   19.6757   26.9408 H   0  0  0  0  0  0
   28.6708   18.8457   29.4639 H   0  0  0  0  0  0
   28.6044   21.4192   26.7008 H   0  0  0  0  0  0
   30.6670   22.4963   25.9154 H   0  0  0  0  0  0
   32.7997   22.1018   27.0959 H   0  0  0  0  0  0
   32.8631   20.7169   29.1156 H   0  0  0  0  0  0
   30.8210   19.5515   29.8856 H   0  0  0  0  0  0
   27.7536   21.1902   30.0291 H   0  0  0  0  0  0
  1  2  1  0  0  0
  1 22  1  0  0  0
  1 23  1  0  0  0
  1 24  1  0  0  0
  2  7  1  0  0  0
  2  3  2  0  0  0
  3  4  1  0  0  0
  3 25  1  0  0  0
  4  5  2  0  0  0
  4 26  1  0  0  0
  5 21  1  0  0  0
  5  6  1  0  0  0
  6  7  2  0  0  0
  6  8  1  0  0  0
  7 27  1  0  0  0
  8 13  1  0  0  0
  8  9  1  0  0  0
  8 28  1  0  0  0
  9 10  1  0  0  0
 10 11  1  0  0  0
 10 29  1  0  0  0
 10 30  1  0  0  0
 11 12  1  0  0  0
 11 31  1  0  0  0
 11 32  1  0  0  0
 12 13  1  0  0  0
 12 33  1  0  0  0
 12 34  1  0  0  0
 13 14  1  0  0  0
 13 35  1  0  0  0
 14 15  1  0  0  0
 14 21  1  0  0  0
 14 36  1  0  0  0
 15 20  1  0  0  0
 15 16  2  0  0  0
 16 17  1  0  0  0
 16 37  1  0  0  0
 17 18  2  0  0  0
 17 38  1  0  0  0
 18 19  1  0  0  0
 18 39  1  0  0  0
 19 20  2  0  0  0
 19 40  1  0  0  0
 20 41  1  0  0  0
 21 42  1  0  0  0
M  END
> <s_m_source_file>
/home/user-home/yujie/0_PBCNetv2/data/FEP/eg5/inp_ligprep.csv

> <i_m_source_file_index>
1

> <i_lp_mmshare_version>
51139

> <i_f3d_flags>
0

> <s_epik_input>
W2NIXTFbY0hdYyhbQ0gzXSlbY0hdYyhjMTIpW0NAQEhdM1tDQEhdKFtDSDJdW0NIMl1bQ0gyXU8zKVtDQEhdKFtOSF0yKWM0W2NIXVtjSF1bY0hdW2NIXVtjSF00

> <s_epik_cmdline>
J2VwaWtfcHl0aG9uJywgJy1waHQnLCAnMi4wJywgJy1waCcsICc3LjQnLCAnLXRuJywgJzgnLCAnLW1hJywgJzIwMCcsICctaW1hZScsICc8aW5maWxlLm1hZT4nLCAnLW9tYWUnLCAnPG91dGZpbGUubWFlPic=

> <r_epik_Ionization_Penalty>
  0.0005

> <r_epik_Ionization_Penalty_Charging>
  0.0000

> <r_epik_Ionization_Penalty_Neutral>
  0.0005

> <r_epik_State_Penalty>
  0.0003

> <r_epik_Charging_Adjusted_Penalty>
0.000303404

> <i_epik_Tot_Q>
0

> <i_epik_Tot_abs_Q>
0

> <s_lp_Force_Field>
OPLS3e

> <r_lp_Energy>
31.0602

> <b_lp_Chiralities_Consistent>
1

> <s_lp_Variant>
lig_eg5_CHEMBL1088740-1

> <s_i_glide_gridfile>
eg5-001-gridgen

> <i_i_glide_lignum>
1

> <i_i_glide_rotatable_bonds>
1

> <r_i_docking_score>
-8.09236893210054

> <r_i_glide_ligand_efficiency>
-0.385350901528597

> <r_i_glide_ligand_efficiency_sa>
-1.06315391753857

> <r_i_glide_ligand_efficiency_ln>
-2.00082186629074

> <r_i_glide_gscore>
-8.09267233610054

> <r_i_glide_lipo>
-4.80785724005444

> <r_i_glide_hbond>
0

> <r_i_glide_metal>
-0

> <r_i_glide_rewards>
-1.62092025757576

> <r_i_glide_evdw>
-37.0670967102051

> <r_i_glide_ecoul>
-0.277978986501694

> <r_i_glide_erotb>
0.23115684501517

> <r_i_glide_esite>
0

> <r_i_glide_emodel>
-53.4711310530095

> <r_i_glide_energy>
-37.3450756967068

> <r_i_glide_einternal>
1.28331911563873

> <i_i_glide_confnum>
1

> <i_i_glide_posenum>
7

> <r_i_glide_eff_state_penalty>
0.000303404

$$$$
