lig_eg5_CHEMBL1093088
                    3D
 Schrodinger Suite 2020-3.
 51 55  0  0  1  0            999 V2000
   22.7901   17.4356   31.9999 F   0  0  0  0  0  0
   22.5010   18.1395   30.9041 C   0  0  0  0  0  0
   21.9634   17.3114   30.0053 F   0  0  0  0  0  0
   21.6024   19.0708   31.2181 F   0  0  0  0  0  0
   23.7791   18.8010   30.4042 C   0  0  0  0  0  0
   24.3190   19.8784   31.1112 C   0  0  0  0  0  0
   25.5275   20.4404   30.7156 C   0  0  0  0  0  0
   26.1987   19.9436   29.6001 C   0  0  0  0  0  0
   25.6666   18.8686   28.8577 C   0  0  0  0  0  0
   24.4451   18.3249   29.2696 C   0  0  0  0  0  0
   26.4584   18.2617   27.6998 C   0  0  1  0  0  0
   25.5788   18.0433   26.6011 O   0  0  0  0  0  0
   26.1282   17.5524   25.3650 C   0  0  1  0  0  0
   25.0984   17.6294   24.2153 C   0  0  0  0  0  0
   24.4117   18.9168   24.2027 N   0  0  0  0  0  0
   24.7058   20.0590   23.5092 C   0  0  0  0  0  0
   23.9036   21.0263   23.8741 N   0  0  0  0  0  0
   23.1608   20.4303   24.7956 C   0  0  0  0  0  0
   23.4000   19.1606   25.0408 N   0  0  0  0  0  0
   27.5248   18.1188   24.9843 C   0  0  0  0  0  0
   28.4121   18.3956   26.2036 C   0  0  0  0  0  0
   27.6003   19.1839   27.2457 C   0  0  2  0  0  0
   28.3857   19.6831   28.4833 C   0  0  1  0  0  0
   29.6610   20.4446   28.1518 C   0  0  0  0  0  0
   29.6998   21.3641   27.0965 C   0  0  0  0  0  0
   30.9090   21.9460   26.7343 C   0  0  0  0  0  0
   32.0604   21.6438   27.4478 C   0  0  0  0  0  0
   32.0025   20.8191   28.5588 C   0  0  0  0  0  0
   30.8104   20.1958   28.9025 C   0  0  0  0  0  0
   27.4795   20.4543   29.3291 N   0  0  0  0  0  0
   23.8172   20.2609   31.9884 H   0  0  0  0  0  0
   25.9503   21.2456   31.2958 H   0  0  0  0  0  0
   24.0438   17.4838   28.7216 H   0  0  0  0  0  0
   26.8564   17.2994   28.0301 H   0  0  0  0  0  0
   26.2945   16.4895   25.5486 H   0  0  0  0  0  0
   25.5739   17.4782   23.2458 H   0  0  0  0  0  0
   24.3513   16.8443   24.3140 H   0  0  0  0  0  0
   25.5167   20.0986   22.7984 H   0  0  0  0  0  0
   22.4017   20.9657   25.3480 H   0  0  0  0  0  0
   28.0360   17.4351   24.3054 H   0  0  0  0  0  0
   27.3946   19.0505   24.4317 H   0  0  0  0  0  0
   28.8209   17.4810   26.6380 H   0  0  0  0  0  0
   29.2909   18.9564   25.8879 H   0  0  0  0  0  0
   27.1557   20.0530   26.7526 H   0  0  0  0  0  0
   28.6983   18.8087   29.0583 H   0  0  0  0  0  0
   28.8094   21.6012   26.5318 H   0  0  0  0  0  0
   30.9595   22.6410   25.9153 H   0  0  0  0  0  0
   33.0098   22.0658   27.1579 H   0  0  0  0  0  0
   32.9017   20.6360   29.1177 H   0  0  0  0  0  0
   30.7855   19.5135   29.7396 H   0  0  0  0  0  0
   27.9206   21.1308   29.9330 H   0  0  0  0  0  0
  1  2  1  0  0  0
  2  3  1  0  0  0
  2  4  1  0  0  0
  2  5  1  0  0  0
  5 10  1  0  0  0
  5  6  2  0  0  0
  6  7  1  0  0  0
  6 31  1  0  0  0
  7  8  2  0  0  0
  7 32  1  0  0  0
  8 30  1  0  0  0
  8  9  1  0  0  0
  9 10  2  0  0  0
  9 11  1  0  0  0
 10 33  1  0  0  0
 11 22  1  0  0  0
 11 12  1  0  0  0
 11 34  1  0  0  0
 12 13  1  0  0  0
 13 14  1  0  0  0
 13 20  1  0  0  0
 13 35  1  0  0  0
 14 15  1  0  0  0
 14 36  1  0  0  0
 14 37  1  0  0  0
 15 19  1  0  0  0
 15 16  1  0  0  0
 16 17  2  0  0  0
 16 38  1  0  0  0
 17 18  1  0  0  0
 18 19  2  0  0  0
 18 39  1  0  0  0
 20 21  1  0  0  0
 20 40  1  0  0  0
 20 41  1  0  0  0
 21 22  1  0  0  0
 21 42  1  0  0  0
 21 43  1  0  0  0
 22 23  1  0  0  0
 22 44  1  0  0  0
 23 24  1  0  0  0
 23 30  1  0  0  0
 23 45  1  0  0  0
 24 29  1  0  0  0
 24 25  2  0  0  0
 25 26  1  0  0  0
 25 46  1  0  0  0
 26 27  2  0  0  0
 26 47  1  0  0  0
 27 28  1  0  0  0
 27 48  1  0  0  0
 28 29  2  0  0  0
 28 49  1  0  0  0
 29 50  1  0  0  0
 30 51  1  0  0  0
M  END
> <s_m_source_file>
/home/user-home/yujie/0_PBCNetv2/data/FEP/eg5/inp_ligprep.csv

> <i_m_source_file_index>
10

> <i_lp_mmshare_version>
51139

> <i_f3d_flags>
0

> <s_epik_input>
W2NIXTFbY0hdW2NIXVtjSF1bY0hdYzFbQ0BASF0oW05IXTIpW0NASF0oW0NASF0zYyhjMjQpW2NIXWMoQyhGKShGKUYpW2NIXVtjSF00KVtDSDJdW0NIMl1bQ0BASF0oTzMpW0NIMl1uNVtjSF1uW2NIXW41

> <s_epik_cmdline>
J2VwaWtfcHl0aG9uJywgJy1waHQnLCAnMi4wJywgJy1waCcsICc3LjQnLCAnLXRuJywgJzgnLCAnLW1hJywgJzIwMCcsICctaW1hZScsICc8aW5maWxlLm1hZT4nLCAnLW9tYWUnLCAnPG91dGZpbGUubWFlPic=

> <r_lp_tautomer_probability>
1

> <r_epik_Ionization_Penalty>
  0.0000

> <r_epik_Ionization_Penalty_Charging>
  0.0000

> <r_epik_Ionization_Penalty_Neutral>
  0.0000

> <r_epik_State_Penalty>
 -0.0000

> <r_epik_Charging_Adjusted_Penalty>
0

> <i_epik_Tot_Q>
0

> <i_epik_Tot_abs_Q>
0

> <s_lp_Force_Field>
OPLS3e

> <r_lp_Energy>
36.3392

> <b_lp_Chiralities_Consistent>
1

> <s_lp_Variant>
lig_eg5_CHEMBL1093088-1

> <s_i_glide_gridfile>
eg5-001-gridgen

> <i_i_glide_lignum>
13

> <i_i_glide_rotatable_bonds>
4

> <r_i_docking_score>
-8.30007310578184

> <r_i_glide_ligand_efficiency>
-0.276669103526061

> <r_i_glide_ligand_efficiency_sa>
-0.85967523089465

> <r_i_glide_ligand_efficiency_ln>
-1.88586704617352

> <r_i_glide_gscore>
-8.30007310578184

> <r_i_glide_lipo>
-4.64806142154205

> <r_i_glide_hbond>
0

> <r_i_glide_metal>
-0

> <r_i_glide_rewards>
-1.81072726572937

> <r_i_glide_evdw>
-46.5679054260254

> <r_i_glide_ecoul>
1.099165558815

> <r_i_glide_erotb>
0.344764128150331

> <r_i_glide_esite>
-0.0225281091817338

> <r_i_glide_emodel>
-62.2808697373946

> <r_i_glide_energy>
-45.4687398672104

> <r_i_glide_einternal>
2.94249653816223

> <i_i_glide_confnum>
5

> <i_i_glide_posenum>
391

> <r_i_glide_eff_state_penalty>
-0

$$$$
