lig_eg5_CHEMBL1084678
                    3D
 Schrodinger Suite 2020-3.
 65 68  0  0  1  0            999 V2000
   26.8196   15.8919   22.9230 C   0  0  0  0  0  0
   26.6144   15.1694   24.2024 N   0  0  2  0  0  0
   27.0050   15.7814   25.5084 C   0  0  0  0  0  0
   26.6700   17.2879   25.6214 C   0  0  2  0  0  0
   27.8797   18.1431   25.1888 C   0  0  0  0  0  0
   27.6193   19.6394   25.3824 C   0  0  0  0  0  0
   27.0391   19.9817   26.7791 C   0  0  2  0  0  0
   28.0137   19.9454   27.9928 C   0  0  1  0  0  0
   29.4049   20.5534   27.8580 C   0  0  0  0  0  0
   29.7172   21.5742   26.9519 C   0  0  0  0  0  0
   31.0296   22.0344   26.8537 C   0  0  0  0  0  0
   31.9999   21.5369   27.7186 C   0  0  0  0  0  0
   31.6737   20.5806   28.6732 C   0  0  0  0  0  0
   30.3872   20.0712   28.7243 C   0  0  0  0  0  0
   27.3089   20.4906   29.1508 N   0  0  0  0  0  0
   26.0329   19.9883   29.4429 C   0  0  0  0  0  0
   25.5212   20.2134   30.7178 C   0  0  0  0  0  0
   24.3305   19.6118   31.1052 C   0  0  0  0  0  0
   23.6740   18.7344   30.2401 C   0  0  0  0  0  0
   22.4304   18.0041   30.7234 C   0  0  0  0  0  0
   21.8704   17.2496   29.7776 F   0  0  0  0  0  0
   22.7515   17.2171   31.7524 F   0  0  0  0  0  0
   21.5414   18.9043   31.1276 F   0  0  0  0  0  0
   24.1748   18.5447   28.9483 C   0  0  0  0  0  0
   25.3359   19.1918   28.5119 C   0  0  0  0  0  0
   25.8594   19.0082   27.0850 C   0  0  2  0  0  0
   26.3015   17.6482   26.9554 O   0  0  0  0  0  0
   26.1448   13.4606   24.1368 S   0  0  0  0  0  0
   26.2738   12.8977   25.4827 O   0  0  0  0  0  0
   24.8719   13.3778   23.4130 O   0  0  0  0  0  0
   27.4606   12.6546   23.0379 C   0  0  0  0  0  0
   28.8548   12.7586   23.6738 C   0  0  0  0  0  0
   29.9243   11.9977   22.8728 C   0  0  0  0  0  0
   31.2996   12.2162   23.5153 N   0  3  0  0  0  0
   31.9931   11.5955   23.1263 H   0  0  0  0  0  0
   31.2202   12.0283   24.5274 H   0  0  0  0  0  0
   26.2742   16.8349   22.9134 H   0  0  0  0  0  0
   26.4368   15.2949   22.0967 H   0  0  0  0  0  0
   27.8841   16.0497   22.7464 H   0  0  0  0  0  0
   26.5073   15.2302   26.3064 H   0  0  0  0  0  0
   28.0693   15.6026   25.6679 H   0  0  0  0  0  0
   25.8046   17.4861   24.9850 H   0  0  0  0  0  0
   28.7618   17.8475   25.7588 H   0  0  0  0  0  0
   28.1237   17.9589   24.1443 H   0  0  0  0  0  0
   28.5276   20.1864   25.1507 H   0  0  0  0  0  0
   26.8985   19.9621   24.6296 H   0  0  0  0  0  0
   26.6196   20.9874   26.7171 H   0  0  0  0  0  0
   28.2124   18.8919   28.2070 H   0  0  0  0  0  0
   28.9591   22.0046   26.3151 H   0  0  0  0  0  0
   31.2930   22.8027   26.1448 H   0  0  0  0  0  0
   33.0106   21.9166   27.6657 H   0  0  0  0  0  0
   32.4079   20.2186   29.3731 H   0  0  0  0  0  0
   30.1501   19.3088   29.4530 H   0  0  0  0  0  0
   27.8874   20.9118   29.8615 H   0  0  0  0  0  0
   26.0504   20.8362   31.4225 H   0  0  0  0  0  0
   23.9452   19.7819   32.1012 H   0  0  0  0  0  0
   23.6567   17.8904   28.2654 H   0  0  0  0  0  0
   25.0361   19.2002   26.3923 H   0  0  0  0  0  0
   27.1530   11.6165   22.9086 H   0  0  0  0  0  0
   27.4217   13.1452   22.0658 H   0  0  0  0  0  0
   29.1376   13.8051   23.7856 H   0  0  0  0  0  0
   28.8015   12.3464   24.6823 H   0  0  0  0  0  0
   29.7690   10.9182   22.9035 H   0  0  0  0  0  0
   30.0306   12.3352   21.8406 H   0  0  0  0  0  0
   31.6097   13.1681   23.3967 H   0  0  0  0  0  0
  1  2  1  0  0  0
  1 37  1  0  0  0
  1 38  1  0  0  0
  1 39  1  0  0  0
  2  3  1  0  0  0
  2 28  1  0  0  0
  3  4  1  0  0  0
  3 40  1  0  0  0
  3 41  1  0  0  0
  4 27  1  0  0  0
  4  5  1  0  0  0
  4 42  1  0  0  0
  5  6  1  0  0  0
  5 43  1  0  0  0
  5 44  1  0  0  0
  6  7  1  0  0  0
  6 45  1  0  0  0
  6 46  1  0  0  0
  7 26  1  0  0  0
  7  8  1  0  0  0
  7 47  1  0  0  0
  8  9  1  0  0  0
  8 15  1  0  0  0
  8 48  1  0  0  0
  9 14  1  0  0  0
  9 10  2  0  0  0
 10 11  1  0  0  0
 10 49  1  0  0  0
 11 12  2  0  0  0
 11 50  1  0  0  0
 12 13  1  0  0  0
 12 51  1  0  0  0
 13 14  2  0  0  0
 13 52  1  0  0  0
 14 53  1  0  0  0
 15 16  1  0  0  0
 15 54  1  0  0  0
 16 25  2  0  0  0
 16 17  1  0  0  0
 17 18  2  0  0  0
 17 55  1  0  0  0
 18 19  1  0  0  0
 18 56  1  0  0  0
 19 20  1  0  0  0
 19 24  2  0  0  0
 20 21  1  0  0  0
 20 22  1  0  0  0
 20 23  1  0  0  0
 24 25  1  0  0  0
 24 57  1  0  0  0
 25 26  1  0  0  0
 26 27  1  0  0  0
 26 58  1  0  0  0
 28 29  2  0  0  0
 28 30  2  0  0  0
 28 31  1  0  0  0
 31 32  1  0  0  0
 31 59  1  0  0  0
 31 60  1  0  0  0
 32 33  1  0  0  0
 32 61  1  0  0  0
 32 62  1  0  0  0
 33 34  1  0  0  0
 33 63  1  0  0  0
 33 64  1  0  0  0
 34 35  1  0  0  0
 34 36  1  0  0  0
 34 65  1  0  0  0
M  CHG  1  34   1
M  END
> <s_m_source_file>
/home/user-home/yujie/0_PBCNetv2/data/FEP/eg5/inp_ligprep.csv

> <i_m_source_file_index>
26

> <i_lp_mmshare_version>
51139

> <i_f3d_flags>
0

> <s_epik_input>
W05IMl1bQ0gyXVtDSDJdW0NIMl1TKD1PKSg9TylOKFtDSDNdKVtDSDJdW0NASF0oW0NIMl1bQ0gyXTEpT1tDQEhdKFtDQEhdMTIpYzNjKFtjSF1bY0hdYyhDKEYpKEYpRilbY0hdMylbTkhdW0NAQEhdMmM0W2NIXVtjSF1bY0hdW2NIXVtjSF00

> <s_epik_cmdline>
J2VwaWtfcHl0aG9uJywgJy1waHQnLCAnMi4wJywgJy1waCcsICc3LjQnLCAnLXRuJywgJzgnLCAnLW1hJywgJzIwMCcsICctaW1hZScsICc8aW5maWxlLm1hZT4nLCAnLW9tYWUnLCAnPG91dGZpbGUubWFlPic=

> <r_epik_Ionization_Penalty>
  0.0036

> <r_epik_Ionization_Penalty_Charging>
  0.0036

> <r_epik_Ionization_Penalty_Neutral>
  0.0000

> <r_epik_State_Penalty>
  0.0026

> <r_epik_Charging_Adjusted_Penalty>
0.00615907

> <i_epik_Tot_Q>
1

> <i_epik_Tot_abs_Q>
1

> <s_lp_Force_Field>
OPLS3e

> <r_lp_Energy>
41.9075

> <b_lp_Chiralities_Consistent>
1

> <s_lp_Variant>
lig_eg5_CHEMBL1084678-1

> <s_i_glide_gridfile>
eg5-001-gridgen

> <i_i_glide_lignum>
34

> <i_i_glide_rotatable_bonds>
8

> <r_i_docking_score>
-8.45980174314873

> <r_i_glide_ligand_efficiency>
-0.248817698327904

> <r_i_glide_ligand_efficiency_sa>
-0.806072750922276

> <r_i_glide_ligand_efficiency_ln>
-1.86900749446292

> <r_i_glide_gscore>
-8.46236086314873

> <r_i_glide_lipo>
-4.18127307220973

> <r_i_glide_hbond>
-0.186635400140496

> <r_i_glide_metal>
-0

> <r_i_glide_rewards>
-1.32590564455364

> <r_i_glide_evdw>
-45.7483215332031

> <r_i_glide_ecoul>
-5.85055875778198

> <r_i_glide_erotb>
0.49255685714384

> <r_i_glide_esite>
-0.0961037130612393

> <r_i_glide_emodel>
-74.275992523428

> <r_i_glide_energy>
-51.5988802909851

> <r_i_glide_einternal>
11.6514282226562

> <i_i_glide_confnum>
83

> <i_i_glide_posenum>
220

> <r_i_glide_eff_state_penalty>
0.00255912

$$$$
