lig_eg5_CHEMBL1096002
                    3D
 Schrodinger Suite 2020-3.
 52 55  0  0  1  0            999 V2000
   29.6515   15.2778   22.3353 O   0  0  0  0  0  0
   28.5126   14.4419   22.2790 C   0  0  0  0  0  0
   27.4740   14.8723   23.3295 C   0  0  0  0  0  0
   28.1392   14.9166   24.7164 N   0  3  0  0  0  0
   27.2472   15.3833   25.8890 C   0  0  0  0  0  0
   26.8054   16.8578   25.7601 C   0  0  2  0  0  0
   27.9742   17.8001   25.3880 C   0  0  0  0  0  0
   27.5215   19.2621   25.4075 C   0  0  0  0  0  0
   26.8299   19.6407   26.7414 C   0  0  2  0  0  0
   27.7353   19.7207   28.0129 C   0  0  1  0  0  0
   29.0763   20.4500   27.8771 C   0  0  0  0  0  0
   29.2598   21.4847   26.9550 C   0  0  0  0  0  0
   30.5228   22.0320   26.7564 C   0  0  0  0  0  0
   31.5925   21.6060   27.5394 C   0  0  0  0  0  0
   31.4060   20.6296   28.5145 C   0  0  0  0  0  0
   30.1518   20.0448   28.6750 C   0  0  0  0  0  0
   26.9237   20.2294   29.1196 N   0  0  0  0  0  0
   25.6614   19.6432   29.3535 C   0  0  0  0  0  0
   25.0344   19.8642   30.5881 C   0  0  0  0  0  0
   25.6039   20.6640   31.5148 F   0  0  0  0  0  0
   23.8162   19.2571   30.8820 C   0  0  0  0  0  0
   23.2067   18.4364   29.9400 C   0  0  0  0  0  0
   21.7185   17.6446   30.3127 Cl  0  0  0  0  0  0
   23.8052   18.2532   28.6953 C   0  0  0  0  0  0
   25.0296   18.8550   28.3661 C   0  0  0  0  0  0
   25.6858   18.6215   26.9997 C   0  0  2  0  0  0
   26.2219   17.2880   26.9963 O   0  0  0  0  0  0
   28.5037   13.9948   24.9253 H   0  0  0  0  0  0
   30.3172   14.9377   21.7257 H   0  0  0  0  0  0
   28.0816   14.4959   21.2797 H   0  0  0  0  0  0
   28.8031   13.4006   22.4252 H   0  0  0  0  0  0
   27.0718   15.8657   23.1227 H   0  0  0  0  0  0
   26.6523   14.1595   23.4085 H   0  0  0  0  0  0
   26.4068   14.6877   25.9371 H   0  0  0  0  0  0
   27.8907   15.2421   26.7571 H   0  0  0  0  0  0
   26.0411   16.8949   24.9822 H   0  0  0  0  0  0
   28.8058   17.6553   26.0796 H   0  0  0  0  0  0
   28.3622   17.5682   24.3965 H   0  0  0  0  0  0
   28.3805   19.8899   25.1849 H   0  0  0  0  0  0
   26.8190   19.4292   24.5882 H   0  0  0  0  0  0
   26.3675   20.6195   26.5893 H   0  0  0  0  0  0
   28.0154   18.6957   28.2718 H   0  0  0  0  0  0
   28.4320   21.8323   26.3557 H   0  0  0  0  0  0
   30.6687   22.7817   25.9920 H   0  0  0  0  0  0
   32.5722   22.0404   27.3957 H   0  0  0  0  0  0
   32.2347   20.3154   29.1308 H   0  0  0  0  0  0
   30.0226   19.2613   29.4084 H   0  0  0  0  0  0
   27.4457   20.6336   29.8829 H   0  0  0  0  0  0
   23.3492   19.4203   31.8416 H   0  0  0  0  0  0
   23.2933   17.6443   27.9695 H   0  0  0  0  0  0
   24.9286   18.7184   26.2198 H   0  0  0  0  0  0
   28.9406   15.5315   24.6549 H   0  0  0  0  0  0
  1  2  1  0  0  0
  1 29  1  0  0  0
  2  3  1  0  0  0
  2 30  1  0  0  0
  2 31  1  0  0  0
  3  4  1  0  0  0
  3 32  1  0  0  0
  3 33  1  0  0  0
  4 28  1  0  0  0
  4  5  1  0  0  0
  4 52  1  0  0  0
  5  6  1  0  0  0
  5 34  1  0  0  0
  5 35  1  0  0  0
  6 27  1  0  0  0
  6  7  1  0  0  0
  6 36  1  0  0  0
  7  8  1  0  0  0
  7 37  1  0  0  0
  7 38  1  0  0  0
  8  9  1  0  0  0
  8 39  1  0  0  0
  8 40  1  0  0  0
  9 26  1  0  0  0
  9 10  1  0  0  0
  9 41  1  0  0  0
 10 11  1  0  0  0
 10 17  1  0  0  0
 10 42  1  0  0  0
 11 16  1  0  0  0
 11 12  2  0  0  0
 12 13  1  0  0  0
 12 43  1  0  0  0
 13 14  2  0  0  0
 13 44  1  0  0  0
 14 15  1  0  0  0
 14 45  1  0  0  0
 15 16  2  0  0  0
 15 46  1  0  0  0
 16 47  1  0  0  0
 17 18  1  0  0  0
 17 48  1  0  0  0
 18 25  2  0  0  0
 18 19  1  0  0  0
 19 20  1  0  0  0
 19 21  2  0  0  0
 21 22  1  0  0  0
 21 49  1  0  0  0
 22 23  1  0  0  0
 22 24  2  0  0  0
 24 25  1  0  0  0
 24 50  1  0  0  0
 25 26  1  0  0  0
 26 27  1  0  0  0
 26 51  1  0  0  0
M  CHG  1   4   1
M  END
> <s_m_source_file>
/home/user-home/yujie/0_PBCNetv2/data/FEP/eg5/inp_ligprep.csv

> <i_m_source_file_index>
7

> <i_lp_mmshare_version>
51139

> <i_f3d_flags>
0

> <s_epik_input>
W09IXVtDSDJdW0NIMl1bTkhdW0NIMl1bQ0BIXShbQ0gyXVtDSDJdMSlPW0NASF0oW0NASF0xMiljM2MoYyhGKVtjSF1jKENsKVtjSF0zKVtOSF1bQ0BASF0yYzRbY0hdW2NIXVtjSF1bY0hdW2NIXTQ=

> <s_epik_cmdline>
J2VwaWtfcHl0aG9uJywgJy1waHQnLCAnMi4wJywgJy1waCcsICc3LjQnLCAnLXRuJywgJzgnLCAnLW1hJywgJzIwMCcsICctaW1hZScsICc8aW5maWxlLm1hZT4nLCAnLW9tYWUnLCAnPG91dGZpbGUubWFlPic=

> <r_epik_Ionization_Penalty>
  0.0354

> <r_epik_Ionization_Penalty_Charging>
  0.0353

> <r_epik_Ionization_Penalty_Neutral>
  0.0000

> <r_epik_State_Penalty>
  0.0295

> <r_epik_Charging_Adjusted_Penalty>
0.064809

> <i_epik_Tot_Q>
1

> <i_epik_Tot_abs_Q>
1

> <s_lp_Force_Field>
OPLS3e

> <r_lp_Energy>
39.998

> <b_lp_Chiralities_Consistent>
1

> <s_lp_Variant>
lig_eg5_CHEMBL1096002-1

> <s_i_glide_gridfile>
eg5-001-gridgen

> <i_i_glide_lignum>
8

> <i_i_glide_rotatable_bonds>
6

> <r_i_docking_score>
-6.76700850056317

> <r_i_glide_ligand_efficiency>
-0.250629944465303

> <r_i_glide_ligand_efficiency_sa>
-0.751889832569873

> <r_i_glide_ligand_efficiency_ln>
-1.57524801607686

> <r_i_glide_gscore>
-6.79647090056317

> <r_i_glide_lipo>
-4.0484525567452

> <r_i_glide_hbond>
0

> <r_i_glide_metal>
-0

> <r_i_glide_rewards>
-1.10032795318024

> <r_i_glide_evdw>
-39.9385604858398

> <r_i_glide_ecoul>
-1.90837013721466

> <r_i_glide_erotb>
0.635493154236458

> <r_i_glide_esite>
0

> <r_i_glide_emodel>
-57.3226872756207

> <r_i_glide_energy>
-41.8469306230545

> <r_i_glide_einternal>
6.40040922164917

> <i_i_glide_confnum>
71

> <i_i_glide_posenum>
362

> <r_i_glide_eff_state_penalty>
0.0294624

$$$$
