CDK2_21
                    3D
 Schrodinger Suite 2020-3.
 49 52  0  0  1  0            999 V2000
    4.6066   40.3302   44.7387 C   0  0  0  0  0  0
    3.9018   40.0831   45.9515 O   0  0  0  0  0  0
    4.4261   40.5544   47.1380 C   0  0  0  0  0  0
    3.6900   40.2873   48.2942 C   0  0  0  0  0  0
    4.1301   40.7335   49.5397 C   0  0  0  0  0  0
    5.3213   41.4488   49.6361 C   0  0  0  0  0  0
    6.0698   41.7328   48.4894 C   0  0  0  0  0  0
    7.2506   42.4809   48.5378 N   0  0  0  0  0  0
    7.6112   43.5459   49.3573 C   0  0  0  0  0  0
    6.6316   44.1940   50.0490 N   0  0  0  0  0  0
    7.0023   45.2184   50.8612 C   0  0  0  0  0  0
    6.0742   45.9224   51.6069 O   0  0  0  0  0  0
    4.6704   45.6822   51.4474 C   0  0  0  0  0  0
    4.0674   45.1924   52.7801 C   0  0  0  0  0  0
    4.2050   46.2387   53.9132 C   0  0  0  0  0  0
    3.6571   45.6971   55.2511 C   0  0  0  0  0  0
    2.1976   45.2100   55.1162 C   0  0  0  0  0  0
    2.0010   44.2418   53.9275 C   0  0  0  0  0  0
    2.5716   44.8325   52.6223 C   0  0  0  0  0  0
    8.3521   45.5649   50.9913 C   0  0  0  0  0  0
    9.0032   46.5117   51.7378 N   0  0  0  0  0  0
   10.2637   46.3130   51.4463 C   0  0  0  0  0  0
   10.4899   45.2810   50.5619 N   0  0  0  0  0  0
    9.2569   44.7942   50.2233 C   0  0  0  0  0  0
    8.9436   43.8073   49.3816 N   0  0  0  0  0  0
    5.6249   41.2800   47.2485 C   0  0  0  0  0  0
   11.4106   45.0040   50.2248 H   0  0  0  0  0  0
    4.0588   39.8907   43.9058 H   0  0  0  0  0  0
    4.7034   41.3991   44.5402 H   0  0  0  0  0  0
    5.5996   39.8768   44.7548 H   0  0  0  0  0  0
    2.7869   39.7035   48.2188 H   0  0  0  0  0  0
    3.5639   40.5108   50.4341 H   0  0  0  0  0  0
    5.6587   41.7855   50.6043 H   0  0  0  0  0  0
    8.0316   42.0401   48.0603 H   0  0  0  0  0  0
    4.4146   44.9902   50.6454 H   0  0  0  0  0  0
    4.2101   46.6288   51.1607 H   0  0  0  0  0  0
    4.5979   44.2877   53.0837 H   0  0  0  0  0  0
    3.6932   47.1621   53.6358 H   0  0  0  0  0  0
    5.2501   46.5273   54.0310 H   0  0  0  0  0  0
    3.7152   46.4686   56.0207 H   0  0  0  0  0  0
    4.2838   44.8733   55.5977 H   0  0  0  0  0  0
    1.5443   46.0757   54.9854 H   0  0  0  0  0  0
    1.8834   44.7298   56.0444 H   0  0  0  0  0  0
    0.9425   44.0132   53.8052 H   0  0  0  0  0  0
    2.4916   43.2912   54.1393 H   0  0  0  0  0  0
    2.4467   44.1134   51.8106 H   0  0  0  0  0  0
    2.0007   45.7079   52.3076 H   0  0  0  0  0  0
   11.0962   46.8803   51.8340 H   0  0  0  0  0  0
    6.2168   41.5037   46.3751 H   0  0  0  0  0  0
  1  2  1  0  0  0
  1 28  1  0  0  0
  1 29  1  0  0  0
  1 30  1  0  0  0
  2  3  1  0  0  0
  3 26  1  0  0  0
  3  4  2  0  0  0
  4  5  1  0  0  0
  4 31  1  0  0  0
  5  6  2  0  0  0
  5 32  1  0  0  0
  6  7  1  0  0  0
  6 33  1  0  0  0
  7  8  1  0  0  0
  7 26  2  0  0  0
  8  9  1  0  0  0
  8 34  1  0  0  0
  9 25  1  0  0  0
  9 10  2  0  0  0
 10 11  1  0  0  0
 11 12  1  0  0  0
 11 20  2  0  0  0
 12 13  1  0  0  0
 13 14  1  0  0  0
 13 35  1  0  0  0
 13 36  1  0  0  0
 14 19  1  0  0  0
 14 15  1  0  0  0
 14 37  1  0  0  0
 15 16  1  0  0  0
 15 38  1  0  0  0
 15 39  1  0  0  0
 16 17  1  0  0  0
 16 40  1  0  0  0
 16 41  1  0  0  0
 17 18  1  0  0  0
 17 42  1  0  0  0
 17 43  1  0  0  0
 18 19  1  0  0  0
 18 44  1  0  0  0
 18 45  1  0  0  0
 19 46  1  0  0  0
 19 47  1  0  0  0
 20 24  1  0  0  0
 20 21  1  0  0  0
 21 22  2  0  0  0
 22 23  1  0  0  0
 22 48  1  0  0  0
 23 27  1  0  0  0
 23 24  1  0  0  0
 24 25  2  0  0  0
 26 49  1  0  0  0
M  END
> <s_m_source_file>
/home/user-home/yujie/0_PBCNetv2/data/FEP/CDK2/inp_ligprep.csv

> <i_m_source_file_index>
11

> <i_lp_mmshare_version>
51139

> <i_f3d_flags>
0

> <s_epik_input>
W0NIM11PYzFbY0hdW2NIXVtjSF1jKFtjSF0xKVtOSF1jKG5jKGMyMylbbkhdW2NIXW4zKW5jMk9bQ0gyXVtDSF00W0NIMl1bQ0gyXVtDSDJdW0NIMl1bQ0gyXTQ=

> <s_epik_cmdline>
J2VwaWtfcHl0aG9uJywgJy1waHQnLCAnMi4wJywgJy1waCcsICc3LjQnLCAnLXRuJywgJzgnLCAnLW1hJywgJzIwMCcsICctaW1hZScsICc8aW5maWxlLm1hZT4nLCAnLW9tYWUnLCAnPG91dGZpbGUubWFlPic=

> <r_lp_tautomer_probability>
0.990859

> <r_epik_Ionization_Penalty>
  0.0272

> <r_epik_Ionization_Penalty_Charging>
  0.0000

> <r_epik_Ionization_Penalty_Neutral>
  0.0272

> <r_epik_State_Penalty>
  0.0117

> <r_epik_Charging_Adjusted_Penalty>
0.0116953

> <i_epik_Tot_Q>
0

> <i_epik_Tot_abs_Q>
0

> <s_lp_Force_Field>
OPLS3e

> <r_lp_Energy>
29.8064

> <b_lp_Chiralities_Consistent>
1

> <s_lp_Variant>
CDK2_21-1

> <s_i_glide_gridfile>
CDK2-001-gridgen

> <i_i_glide_lignum>
21

> <i_i_glide_rotatable_bonds>
6

> <r_i_docking_score>
-9.31105824541411

> <r_i_glide_ligand_efficiency>
-0.358117624823619

> <r_i_glide_ligand_efficiency_sa>
-1.06092205441516

> <r_i_glide_ligand_efficiency_ln>
-2.18667147686146

> <r_i_glide_gscore>
-9.32275354541411

> <r_i_glide_lipo>
-2.15874211286902

> <r_i_glide_hbond>
-0.767584942288022

> <r_i_glide_metal>
-0

> <r_i_glide_rewards>
-3.39822194297563

> <r_i_glide_evdw>
-40.9153137207031

> <r_i_glide_ecoul>
-9.76947212219238

> <r_i_glide_erotb>
0.535113892068438

> <r_i_glide_esite>
-0.0221319349858542

> <r_i_glide_emodel>
-77.5955743803475

> <r_i_glide_energy>
-50.6847858428955

> <r_i_glide_einternal>
3.02365660667419

> <i_i_glide_confnum>
17

> <i_i_glide_posenum>
349

> <r_i_glide_eff_state_penalty>
0.0116953

$$$$
