CDK2_28
                    3D
 Schrodinger Suite 2020-3.
 53 56  0  0  1  0            999 V2000
    4.3164   38.0914   44.5653 C   0  0  0  0  0  0
    3.2658   39.1095   44.7443 N   0  0  1  0  0  0
    2.6822   39.5633   46.3458 S   0  0  0  0  0  0
    2.4475   38.3383   47.1162 O   0  0  0  0  0  0
    1.6056   40.5392   46.1390 O   0  0  0  0  0  0
    4.0082   40.4386   47.1794 C   0  0  0  0  0  0
    5.0162   41.0364   46.4244 C   0  0  0  0  0  0
    6.0802   41.6411   47.0773 C   0  0  0  0  0  0
    6.1384   41.6905   48.4583 C   0  0  0  0  0  0
    7.2899   42.2711   48.9967 N   0  0  0  0  0  0
    7.4937   43.4914   49.6354 C   0  0  0  0  0  0
    6.4191   44.1309   50.1540 N   0  0  0  0  0  0
    6.6552   45.2235   50.9335 C   0  0  0  0  0  0
    5.6194   45.8819   51.5681 O   0  0  0  0  0  0
    4.2919   45.3547   51.4928 C   0  0  0  0  0  0
    3.5545   45.6430   52.8138 C   0  0  0  0  0  0
    2.1140   45.0789   52.7822 C   0  0  0  0  0  0
    1.3540   45.4029   54.0844 C   0  0  0  0  0  0
    2.1122   44.8946   55.3306 C   0  0  0  0  0  0
    3.5804   45.3702   55.3537 C   0  0  0  0  0  0
    4.2973   45.0388   54.0319 C   0  0  0  0  0  0
    7.9622   45.6802   51.1571 C   0  0  0  0  0  0
    8.4810   46.7151   51.8951 N   0  0  0  0  0  0
    9.7782   46.5912   51.7361 C   0  0  0  0  0  0
   10.1464   45.5302   50.9362 N   0  0  0  0  0  0
    8.9801   44.9342   50.5246 C   0  0  0  0  0  0
    8.8016   43.8660   49.7376 N   0  0  0  0  0  0
    5.1171   41.1332   49.2262 C   0  0  0  0  0  0
    4.0544   40.4928   48.5822 C   0  0  0  0  0  0
   11.1011   45.2841   50.7023 H   0  0  0  0  0  0
    4.1695   37.5651   43.6229 H   0  0  0  0  0  0
    5.2912   38.5787   44.5359 H   0  0  0  0  0  0
    4.3117   37.3854   45.3951 H   0  0  0  0  0  0
    3.1653   39.8115   44.0059 H   0  0  0  0  0  0
    4.9973   41.0170   45.3430 H   0  0  0  0  0  0
    6.8915   42.0798   46.5372 H   0  0  0  0  0  0
    8.1329   41.9407   48.5409 H   0  0  0  0  0  0
    4.2608   44.2783   51.3226 H   0  0  0  0  0  0
    3.7806   45.8244   50.6529 H   0  0  0  0  0  0
    3.4930   46.7237   52.9545 H   0  0  0  0  0  0
    2.1358   43.9994   52.6177 H   0  0  0  0  0  0
    1.5747   45.4803   51.9227 H   0  0  0  0  0  0
    0.3504   44.9750   54.0559 H   0  0  0  0  0  0
    1.2218   46.4805   54.1608 H   0  0  0  0  0  0
    2.0913   43.8050   55.3399 H   0  0  0  0  0  0
    1.6045   45.2150   56.2414 H   0  0  0  0  0  0
    4.1067   44.9022   56.1848 H   0  0  0  0  0  0
    3.6157   46.4449   55.5385 H   0  0  0  0  0  0
    5.3254   45.4032   54.0674 H   0  0  0  0  0  0
    4.3898   43.9574   53.9155 H   0  0  0  0  0  0
   10.5347   47.2352   52.1652 H   0  0  0  0  0  0
    5.1714   41.1646   50.3054 H   0  0  0  0  0  0
    3.2882   40.0203   49.1768 H   0  0  0  0  0  0
  1  2  1  0  0  0
  1 31  1  0  0  0
  1 32  1  0  0  0
  1 33  1  0  0  0
  2  3  1  0  0  0
  2 34  1  0  0  0
  3  4  2  0  0  0
  3  5  2  0  0  0
  3  6  1  0  0  0
  6 29  1  0  0  0
  6  7  2  0  0  0
  7  8  1  0  0  0
  7 35  1  0  0  0
  8  9  2  0  0  0
  8 36  1  0  0  0
  9 10  1  0  0  0
  9 28  1  0  0  0
 10 11  1  0  0  0
 10 37  1  0  0  0
 11 27  1  0  0  0
 11 12  2  0  0  0
 12 13  1  0  0  0
 13 14  1  0  0  0
 13 22  2  0  0  0
 14 15  1  0  0  0
 15 16  1  0  0  0
 15 38  1  0  0  0
 15 39  1  0  0  0
 16 21  1  0  0  0
 16 17  1  0  0  0
 16 40  1  0  0  0
 17 18  1  0  0  0
 17 41  1  0  0  0
 17 42  1  0  0  0
 18 19  1  0  0  0
 18 43  1  0  0  0
 18 44  1  0  0  0
 19 20  1  0  0  0
 19 45  1  0  0  0
 19 46  1  0  0  0
 20 21  1  0  0  0
 20 47  1  0  0  0
 20 48  1  0  0  0
 21 49  1  0  0  0
 21 50  1  0  0  0
 22 26  1  0  0  0
 22 23  1  0  0  0
 23 24  2  0  0  0
 24 25  1  0  0  0
 24 51  1  0  0  0
 25 30  1  0  0  0
 25 26  1  0  0  0
 26 27  2  0  0  0
 28 29  2  0  0  0
 28 52  1  0  0  0
 29 53  1  0  0  0
M  END
> <s_m_source_file>
/home/user-home/yujie/0_PBCNetv2/data/FEP/CDK2/inp_ligprep.csv

> <i_m_source_file_index>
15

> <i_lp_mmshare_version>
51139

> <i_f3d_flags>
0

> <s_epik_input>
W0NIM11bTkhdUyg9TykoPU8pYzFbY0hdW2NIXWMoW2NIXVtjSF0xKVtOSF1jKG5jKGMyMylbbkhdW2NIXW4zKW5jMk9bQ0gyXVtDSF00W0NIMl1bQ0gyXVtDSDJdW0NIMl1bQ0gyXTQ=

> <s_epik_cmdline>
J2VwaWtfcHl0aG9uJywgJy1waHQnLCAnMi4wJywgJy1waCcsICc3LjQnLCAnLXRuJywgJzgnLCAnLW1hJywgJzIwMCcsICctaW1hZScsICc8aW5maWxlLm1hZT4nLCAnLW9tYWUnLCAnPG91dGZpbGUubWFlPic=

> <r_lp_tautomer_probability>
0.990859

> <r_epik_Ionization_Penalty>
  0.0272

> <r_epik_Ionization_Penalty_Charging>
  0.0000

> <r_epik_Ionization_Penalty_Neutral>
  0.0272

> <r_epik_State_Penalty>
  0.0125

> <r_epik_Charging_Adjusted_Penalty>
0.012504

> <i_epik_Tot_Q>
0

> <i_epik_Tot_abs_Q>
0

> <s_lp_Force_Field>
OPLS3e

> <r_lp_Energy>
23.5879

> <b_lp_Chiralities_Consistent>
1

> <s_lp_Variant>
CDK2_28-1

> <s_i_glide_gridfile>
CDK2-001-gridgen

> <i_i_glide_lignum>
29

> <i_i_glide_rotatable_bonds>
7

> <r_i_docking_score>
-7.87353349879862

> <r_i_glide_ligand_efficiency>
-0.271501155130987

> <r_i_glide_ligand_efficiency_sa>
-0.834137566165811

> <r_i_glide_ligand_efficiency_ln>
-1.80283951564211

> <r_i_glide_gscore>
-7.88603749879862

> <r_i_glide_lipo>
-2.20423656003527

> <r_i_glide_hbond>
-0.478061085120988

> <r_i_glide_metal>
-0

> <r_i_glide_rewards>
-2.09985560234333

> <r_i_glide_evdw>
-44.3968811035156

> <r_i_glide_ecoul>
-9.51629829406738

> <r_i_glide_erotb>
0.683337541057524

> <r_i_glide_esite>
-0.139932993070663

> <r_i_glide_emodel>
-70.1152783120252

> <r_i_glide_energy>
-53.913179397583

> <r_i_glide_einternal>
10.3084230422974

> <i_i_glide_confnum>
163

> <i_i_glide_posenum>
92

> <r_i_glide_eff_state_penalty>
0.012504

$$$$
