CDK2_1oi9
                    3D
 Schrodinger Suite 2020-3.
 46 49  0  0  1  0            999 V2000
    2.8899   39.7062   47.7397 O   0  0  0  0  0  0
    3.9837   40.4700   48.0383 C   0  0  0  0  0  0
    4.8897   40.7650   47.0232 C   0  0  0  0  0  0
    6.0427   41.4755   47.3193 C   0  0  0  0  0  0
    6.2720   41.9229   48.6173 C   0  0  0  0  0  0
    7.4489   42.6404   48.8424 N   0  0  0  0  0  0
    7.7116   43.7536   49.6312 C   0  0  0  0  0  0
    6.6632   44.3709   50.2234 N   0  0  0  0  0  0
    6.9310   45.4060   51.0592 C   0  0  0  0  0  0
    5.9079   46.0427   51.7377 O   0  0  0  0  0  0
    4.5566   45.5965   51.5530 C   0  0  0  0  0  0
    3.7408   45.7824   52.8481 C   0  0  0  0  0  0
    2.3090   45.2125   52.6841 C   0  0  0  0  0  0
    1.4609   45.4279   53.9525 C   0  0  0  0  0  0
    2.1427   44.8656   55.2159 C   0  0  0  0  0  0
    3.6152   45.3202   55.3511 C   0  0  0  0  0  0
    4.4069   45.0765   54.0532 C   0  0  0  0  0  0
    8.2498   45.8383   51.2582 C   0  0  0  0  0  0
    8.8048   46.8438   52.0036 N   0  0  0  0  0  0
   10.0897   46.7245   51.7733 C   0  0  0  0  0  0
   10.4263   45.6810   50.9385 N   0  0  0  0  0  0
    9.2397   45.1076   50.5590 C   0  0  0  0  0  0
    9.0293   44.0803   49.7369 N   0  0  0  0  0  0
    5.3551   41.6389   49.6371 C   0  0  0  0  0  0
    4.2077   40.8990   49.3463 C   0  0  0  0  0  0
   11.3713   45.4396   50.6536 H   0  0  0  0  0  0
    2.9723   39.3084   46.8683 H   0  0  0  0  0  0
    4.7242   40.4154   46.0156 H   0  0  0  0  0  0
    6.7612   41.6803   46.5370 H   0  0  0  0  0  0
    8.2524   42.2755   48.3458 H   0  0  0  0  0  0
    4.4767   44.5436   51.2714 H   0  0  0  0  0  0
    4.1164   46.1724   50.7359 H   0  0  0  0  0  0
    3.6638   46.8483   53.0702 H   0  0  0  0  0  0
    2.3554   44.1488   52.4418 H   0  0  0  0  0  0
    1.8203   45.6711   51.8215 H   0  0  0  0  0  0
    0.4751   44.9801   53.8295 H   0  0  0  0  0  0
    1.2885   46.4881   54.0926 H   0  0  0  0  0  0
    2.0951   43.7747   55.1846 H   0  0  0  0  0  0
    1.5867   45.1589   56.1067 H   0  0  0  0  0  0
    4.0912   44.7901   56.1755 H   0  0  0  0  0  0
    3.6501   46.3800   55.6107 H   0  0  0  0  0  0
    5.4334   45.4252   54.1754 H   0  0  0  0  0  0
    4.5004   44.0076   53.8583 H   0  0  0  0  0  0
   10.8673   47.3508   52.1859 H   0  0  0  0  0  0
    5.5404   41.9665   50.6479 H   0  0  0  0  0  0
    3.5111   40.6515   50.1363 H   0  0  0  0  0  0
  1  2  1  0  0  0
  1 27  1  0  0  0
  2 25  1  0  0  0
  2  3  2  0  0  0
  3  4  1  0  0  0
  3 28  1  0  0  0
  4  5  2  0  0  0
  4 29  1  0  0  0
  5  6  1  0  0  0
  5 24  1  0  0  0
  6  7  1  0  0  0
  6 30  1  0  0  0
  7 23  1  0  0  0
  7  8  2  0  0  0
  8  9  1  0  0  0
  9 10  1  0  0  0
  9 18  2  0  0  0
 10 11  1  0  0  0
 11 12  1  0  0  0
 11 31  1  0  0  0
 11 32  1  0  0  0
 12 17  1  0  0  0
 12 13  1  0  0  0
 12 33  1  0  0  0
 13 14  1  0  0  0
 13 34  1  0  0  0
 13 35  1  0  0  0
 14 15  1  0  0  0
 14 36  1  0  0  0
 14 37  1  0  0  0
 15 16  1  0  0  0
 15 38  1  0  0  0
 15 39  1  0  0  0
 16 17  1  0  0  0
 16 40  1  0  0  0
 16 41  1  0  0  0
 17 42  1  0  0  0
 17 43  1  0  0  0
 18 22  1  0  0  0
 18 19  1  0  0  0
 19 20  2  0  0  0
 20 21  1  0  0  0
 20 44  1  0  0  0
 21 26  1  0  0  0
 21 22  1  0  0  0
 22 23  2  0  0  0
 24 25  2  0  0  0
 24 45  1  0  0  0
 25 46  1  0  0  0
M  END
> <s_m_source_file>
/home/user-home/yujie/0_PBCNetv2/data/FEP/CDK2/inp_ligprep.csv

> <i_m_source_file_index>
10

> <i_lp_mmshare_version>
51139

> <i_f3d_flags>
0

> <s_epik_input>
W09IXWMxW2NIXVtjSF1jKFtjSF1bY0hdMSlbTkhdYyhuYyhjMjMpW25IXVtjSF1uMyluYzJPW0NIMl1bQ0hdNFtDSDJdW0NIMl1bQ0gyXVtDSDJdW0NIMl00

> <s_epik_cmdline>
J2VwaWtfcHl0aG9uJywgJy1waHQnLCAnMi4wJywgJy1waCcsICc3LjQnLCAnLXRuJywgJzgnLCAnLW1hJywgJzIwMCcsICctaW1hZScsICc8aW5maWxlLm1hZT4nLCAnLW9tYWUnLCAnPG91dGZpbGUubWFlPic=

> <r_lp_tautomer_probability>
0.990859

> <r_epik_Ionization_Penalty>
  0.0275

> <r_epik_Ionization_Penalty_Charging>
  0.0000

> <r_epik_Ionization_Penalty_Neutral>
  0.0275

> <r_epik_State_Penalty>
  0.0125

> <r_epik_Charging_Adjusted_Penalty>
0.0124756

> <i_epik_Tot_Q>
0

> <i_epik_Tot_abs_Q>
0

> <s_lp_Force_Field>
OPLS3e

> <r_lp_Energy>
23.6711

> <b_lp_Chiralities_Consistent>
1

> <s_lp_Variant>
CDK2_1oi9-1

> <s_i_glide_gridfile>
CDK2-001-gridgen

> <i_i_glide_lignum>
19

> <i_i_glide_rotatable_bonds>
6

> <r_i_docking_score>
-9.63185406454977

> <r_i_glide_ligand_efficiency>
-0.385274162581991

> <r_i_glide_ligand_efficiency_sa>
-1.12654848425611

> <r_i_glide_ligand_efficiency_ln>
-2.28303805667252

> <r_i_glide_gscore>
-9.64432966454977

> <r_i_glide_lipo>
-2.25716410254154

> <r_i_glide_hbond>
-0.625768276056384

> <r_i_glide_metal>
-0

> <r_i_glide_rewards>
-3.92652253277885

> <r_i_glide_evdw>
-45.2550811767578

> <r_i_glide_ecoul>
-9.29049682617188

> <r_i_glide_erotb>
0.82145382959068

> <r_i_glide_esite>
0

> <r_i_glide_emodel>
-86.0611811941829

> <r_i_glide_energy>
-54.5455780029297

> <r_i_glide_einternal>
1.84183418750763

> <i_i_glide_confnum>
19

> <i_i_glide_posenum>
141

> <r_i_glide_eff_state_penalty>
0.0124756

$$$$
