CDK2_17
                    3D
 Schrodinger Suite 2020-3.
 45 48  0  0  1  0            999 V2000
    3.9038   40.0298   45.3383 Br  0  0  0  0  0  0
    4.4832   40.5856   47.0630 C   0  0  0  0  0  0
    3.6973   40.3146   48.1830 C   0  0  0  0  0  0
    4.1083   40.7485   49.4444 C   0  0  0  0  0  0
    5.3036   41.4571   49.5800 C   0  0  0  0  0  0
    6.0899   41.7416   48.4558 C   0  0  0  0  0  0
    7.2796   42.4808   48.5379 N   0  0  0  0  0  0
    7.6358   43.5529   49.3448 C   0  0  0  0  0  0
    6.6475   44.1905   50.0222 N   0  0  0  0  0  0
    7.0007   45.2000   50.8582 C   0  0  0  0  0  0
    6.0466   45.8519   51.6155 O   0  0  0  0  0  0
    4.6839   45.4207   51.5287 C   0  0  0  0  0  0
    3.9306   45.7723   52.8223 C   0  0  0  0  0  0
    2.4647   45.2837   52.7497 C   0  0  0  0  0  0
    1.6833   45.6808   54.0145 C   0  0  0  0  0  0
    2.3683   45.1667   55.2998 C   0  0  0  0  0  0
    3.8636   45.5442   55.3585 C   0  0  0  0  0  0
    4.5992   45.1397   54.0676 C   0  0  0  0  0  0
    8.3441   45.5632   51.0024 C   0  0  0  0  0  0
    8.9788   46.5072   51.7647 N   0  0  0  0  0  0
   10.2452   46.3134   51.4949 C   0  0  0  0  0  0
   10.4895   45.2869   50.6073 N   0  0  0  0  0  0
    9.2632   44.8029   50.2404 C   0  0  0  0  0  0
    8.9670   43.8182   49.3888 N   0  0  0  0  0  0
    5.6840   41.2810   47.2027 C   0  0  0  0  0  0
   11.4163   45.0163   50.2822 H   0  0  0  0  0  0
    2.7867   39.7478   48.0679 H   0  0  0  0  0  0
    3.5142   40.5274   50.3203 H   0  0  0  0  0  0
    5.6150   41.7888   50.5588 H   0  0  0  0  0  0
    8.0609   42.0450   48.0543 H   0  0  0  0  0  0
    4.5950   44.3418   51.3813 H   0  0  0  0  0  0
    4.2203   45.9028   50.6664 H   0  0  0  0  0  0
    3.9263   46.8570   52.9455 H   0  0  0  0  0  0
    2.4340   44.2014   52.6090 H   0  0  0  0  0  0
    1.9769   45.6934   51.8637 H   0  0  0  0  0  0
    0.6590   45.3102   53.9587 H   0  0  0  0  0  0
    1.6120   46.7665   54.0525 H   0  0  0  0  0  0
    2.2736   44.0817   55.3498 H   0  0  0  0  0  0
    1.8548   45.5545   56.1801 H   0  0  0  0  0  0
    4.3311   45.0639   56.2193 H   0  0  0  0  0  0
    3.9636   46.6189   55.5205 H   0  0  0  0  0  0
    5.6477   45.4362   54.1269 H   0  0  0  0  0  0
    4.6276   44.0520   53.9700 H   0  0  0  0  0  0
   11.0682   46.8811   51.9029 H   0  0  0  0  0  0
    6.2864   41.4832   46.3291 H   0  0  0  0  0  0
  1  2  1  0  0  0
  2 25  1  0  0  0
  2  3  2  0  0  0
  3  4  1  0  0  0
  3 27  1  0  0  0
  4  5  2  0  0  0
  4 28  1  0  0  0
  5  6  1  0  0  0
  5 29  1  0  0  0
  6  7  1  0  0  0
  6 25  2  0  0  0
  7  8  1  0  0  0
  7 30  1  0  0  0
  8 24  1  0  0  0
  8  9  2  0  0  0
  9 10  1  0  0  0
 10 11  1  0  0  0
 10 19  2  0  0  0
 11 12  1  0  0  0
 12 13  1  0  0  0
 12 31  1  0  0  0
 12 32  1  0  0  0
 13 18  1  0  0  0
 13 14  1  0  0  0
 13 33  1  0  0  0
 14 15  1  0  0  0
 14 34  1  0  0  0
 14 35  1  0  0  0
 15 16  1  0  0  0
 15 36  1  0  0  0
 15 37  1  0  0  0
 16 17  1  0  0  0
 16 38  1  0  0  0
 16 39  1  0  0  0
 17 18  1  0  0  0
 17 40  1  0  0  0
 17 41  1  0  0  0
 18 42  1  0  0  0
 18 43  1  0  0  0
 19 23  1  0  0  0
 19 20  1  0  0  0
 20 21  2  0  0  0
 21 22  1  0  0  0
 21 44  1  0  0  0
 22 26  1  0  0  0
 22 23  1  0  0  0
 23 24  2  0  0  0
 25 45  1  0  0  0
M  END
> <s_m_source_file>
/home/user-home/yujie/0_PBCNetv2/data/FEP/CDK2/inp_ligprep.csv

> <i_m_source_file_index>
8

> <i_lp_mmshare_version>
51139

> <i_f3d_flags>
0

> <s_epik_input>
QnJjMVtjSF1bY0hdW2NIXWMoW2NIXTEpW05IXWMobmMoYzIzKVtuSF1bY0hdbjMpbmMyT1tDSDJdW0NIXTRbQ0gyXVtDSDJdW0NIMl1bQ0gyXVtDSDJdNA==

> <s_epik_cmdline>
J2VwaWtfcHl0aG9uJywgJy1waHQnLCAnMi4wJywgJy1waCcsICc3LjQnLCAnLXRuJywgJzgnLCAnLW1hJywgJzIwMCcsICctaW1hZScsICc8aW5maWxlLm1hZT4nLCAnLW9tYWUnLCAnPG91dGZpbGUubWFlPic=

> <r_lp_tautomer_probability>
0.990859

> <r_epik_Ionization_Penalty>
  0.0272

> <r_epik_Ionization_Penalty_Charging>
  0.0000

> <r_epik_Ionization_Penalty_Neutral>
  0.0272

> <r_epik_State_Penalty>
  0.0122

> <r_epik_Charging_Adjusted_Penalty>
0.012228

> <i_epik_Tot_Q>
0

> <i_epik_Tot_abs_Q>
0

> <s_lp_Force_Field>
OPLS3e

> <r_lp_Energy>
26.1962

> <b_lp_Chiralities_Consistent>
1

> <s_lp_Variant>
CDK2_17-1

> <s_i_glide_gridfile>
CDK2-001-gridgen

> <i_i_glide_lignum>
15

> <i_i_glide_rotatable_bonds>
5

> <r_i_docking_score>
-9.23307217604633

> <r_i_glide_ligand_efficiency>
-0.369322887041853

> <r_i_glide_ligand_efficiency_sa>
-1.07990667167967

> <r_i_glide_ligand_efficiency_ln>
-2.18851479856836

> <r_i_glide_gscore>
-9.24530017604634

> <r_i_glide_lipo>
-2.20133034872367

> <r_i_glide_hbond>
-0.773081170089969

> <r_i_glide_metal>
-0

> <r_i_glide_rewards>
-3.07128133142907

> <r_i_glide_evdw>
-45.2480125427246

> <r_i_glide_ecoul>
-8.91466236114502

> <r_i_glide_erotb>
0.424369013089904

> <r_i_glide_esite>
-0.0243763575855535

> <r_i_glide_emodel>
-83.0741964498617

> <r_i_glide_energy>
-54.1626749038696

> <r_i_glide_einternal>
2.15308666229248

> <i_i_glide_confnum>
216

> <i_i_glide_posenum>
126

> <r_i_glide_eff_state_penalty>
0.012228

$$$$
