CDK2_1oiu
                    3D
 Schrodinger Suite 2020-3.
 50 53  0  0  1  0            999 V2000
    3.8400   42.2917   44.5377 N   0  0  0  0  0  0
    4.0340   40.6674   45.1468 S   0  0  0  0  0  0
    5.1744   40.0808   44.4373 O   0  0  0  0  0  0
    2.7112   40.0352   45.1370 O   0  0  0  0  0  0
    4.5227   40.8783   46.8585 C   0  0  0  0  0  0
    3.7066   40.4488   47.9097 C   0  0  0  0  0  0
    4.0793   40.6958   49.2340 C   0  0  0  0  0  0
    5.2694   41.3720   49.5109 C   0  0  0  0  0  0
    6.0927   41.7906   48.4620 C   0  0  0  0  0  0
    7.2900   42.4814   48.6797 N   0  0  0  0  0  0
    7.5994   43.5719   49.4971 C   0  0  0  0  0  0
    6.5772   44.1940   50.1377 N   0  0  0  0  0  0
    6.8809   45.2271   50.9668 C   0  0  0  0  0  0
    5.8834   45.8565   51.6905 O   0  0  0  0  0  0
    4.5325   45.3920   51.5645 C   0  0  0  0  0  0
    3.7333   45.6721   52.8507 C   0  0  0  0  0  0
    2.2913   45.1231   52.7285 C   0  0  0  0  0  0
    1.4541   45.4121   53.9904 C   0  0  0  0  0  0
    2.1434   44.8876   55.2686 C   0  0  0  0  0  0
    3.6132   45.3493   55.3780 C   0  0  0  0  0  0
    4.4010   45.0328   54.0933 C   0  0  0  0  0  0
    8.2139   45.6279   51.1569 C   0  0  0  0  0  0
    8.8051   46.5904   51.9336 N   0  0  0  0  0  0
   10.0884   46.4327   51.7092 C   0  0  0  0  0  0
   10.3846   45.4096   50.8316 N   0  0  0  0  0  0
    9.1778   44.8809   50.4352 C   0  0  0  0  0  0
    8.9251   43.8799   49.5844 N   0  0  0  0  0  0
    5.7282   41.5170   47.1425 C   0  0  0  0  0  0
   11.3241   45.1617   50.5327 H   0  0  0  0  0  0
    4.0860   42.3707   43.5351 H   0  0  0  0  0  0
    2.8906   42.6433   44.6663 H   0  0  0  0  0  0
    2.7862   39.9238   47.6971 H   0  0  0  0  0  0
    3.4545   40.3649   50.0520 H   0  0  0  0  0  0
    5.5495   41.5703   50.5355 H   0  0  0  0  0  0
    8.0910   42.0949   48.1899 H   0  0  0  0  0  0
    4.4716   44.3195   51.3755 H   0  0  0  0  0  0
    4.0747   45.8908   50.7106 H   0  0  0  0  0  0
    3.6795   46.7506   53.0088 H   0  0  0  0  0  0
    2.3184   44.0474   52.5438 H   0  0  0  0  0  0
    1.8029   45.5437   51.8482 H   0  0  0  0  0  0
    0.4633   44.9677   53.8946 H   0  0  0  0  0  0
    1.2941   46.4834   54.0828 H   0  0  0  0  0  0
    2.1022   43.7965   55.2663 H   0  0  0  0  0  0
    1.5891   45.2046   56.1528 H   0  0  0  0  0  0
    4.0897   44.8675   56.2323 H   0  0  0  0  0  0
    3.6484   46.4209   55.5806 H   0  0  0  0  0  0
    5.4308   45.3782   54.1913 H   0  0  0  0  0  0
    4.4858   43.9527   53.9605 H   0  0  0  0  0  0
   10.8840   47.0266   52.1364 H   0  0  0  0  0  0
    6.3664   41.8313   46.3301 H   0  0  0  0  0  0
  1  2  1  0  0  0
  1 30  1  0  0  0
  1 31  1  0  0  0
  2  3  2  0  0  0
  2  4  2  0  0  0
  2  5  1  0  0  0
  5 28  1  0  0  0
  5  6  2  0  0  0
  6  7  1  0  0  0
  6 32  1  0  0  0
  7  8  2  0  0  0
  7 33  1  0  0  0
  8  9  1  0  0  0
  8 34  1  0  0  0
  9 10  1  0  0  0
  9 28  2  0  0  0
 10 11  1  0  0  0
 10 35  1  0  0  0
 11 27  1  0  0  0
 11 12  2  0  0  0
 12 13  1  0  0  0
 13 14  1  0  0  0
 13 22  2  0  0  0
 14 15  1  0  0  0
 15 16  1  0  0  0
 15 36  1  0  0  0
 15 37  1  0  0  0
 16 21  1  0  0  0
 16 17  1  0  0  0
 16 38  1  0  0  0
 17 18  1  0  0  0
 17 39  1  0  0  0
 17 40  1  0  0  0
 18 19  1  0  0  0
 18 41  1  0  0  0
 18 42  1  0  0  0
 19 20  1  0  0  0
 19 43  1  0  0  0
 19 44  1  0  0  0
 20 21  1  0  0  0
 20 45  1  0  0  0
 20 46  1  0  0  0
 21 47  1  0  0  0
 21 48  1  0  0  0
 22 26  1  0  0  0
 22 23  1  0  0  0
 23 24  2  0  0  0
 24 25  1  0  0  0
 24 49  1  0  0  0
 25 29  1  0  0  0
 25 26  1  0  0  0
 26 27  2  0  0  0
 28 50  1  0  0  0
M  END
> <s_m_source_file>
/home/user-home/yujie/0_PBCNetv2/data/FEP/CDK2/inp_ligprep.csv

> <i_m_source_file_index>
4

> <i_lp_mmshare_version>
51139

> <i_f3d_flags>
0

> <s_epik_input>
W05IMl1TKD1PKSg9TyljMVtjSF1bY0hdW2NIXWMoW2NIXTEpW05IXWMobmMoYzIzKVtuSF1bY0hdbjMpbmMyT1tDSDJdW0NIXTRbQ0gyXVtDSDJdW0NIMl1bQ0gyXVtDSDJdNA==

> <s_epik_cmdline>
J2VwaWtfcHl0aG9uJywgJy1waHQnLCAnMi4wJywgJy1waCcsICc3LjQnLCAnLXRuJywgJzgnLCAnLW1hJywgJzIwMCcsICctaW1hZScsICc8aW5maWxlLm1hZT4nLCAnLW9tYWUnLCAnPG91dGZpbGUubWFlPic=

> <r_lp_tautomer_probability>
0.990859

> <r_epik_Ionization_Penalty>
  0.0286

> <r_epik_Ionization_Penalty_Charging>
  0.0000

> <r_epik_Ionization_Penalty_Neutral>
  0.0286

> <r_epik_State_Penalty>
  0.0123

> <r_epik_Charging_Adjusted_Penalty>
0.0123459

> <i_epik_Tot_Q>
0

> <i_epik_Tot_abs_Q>
0

> <s_lp_Force_Field>
OPLS3e

> <r_lp_Energy>
24.6969

> <b_lp_Chiralities_Consistent>
1

> <s_lp_Variant>
CDK2_1oiu-1

> <s_i_glide_gridfile>
CDK2-001-gridgen

> <i_i_glide_lignum>
7

> <i_i_glide_rotatable_bonds>
6

> <r_i_docking_score>
-9.09439199742165

> <r_i_glide_ligand_efficiency>
-0.32479971419363

> <r_i_glide_ligand_efficiency_sa>
-0.986283229093246

> <r_i_glide_ligand_efficiency_ln>
-2.09925269595683

> <r_i_glide_gscore>
-9.10673789742165

> <r_i_glide_lipo>
-2.07185121595883

> <r_i_glide_hbond>
-0.787520159072853

> <r_i_glide_metal>
-0

> <r_i_glide_rewards>
-2.49825964336161

> <r_i_glide_evdw>
-49.8258247375488

> <r_i_glide_ecoul>
-10.4272394180298

> <r_i_glide_erotb>
0.424020850503833

> <r_i_glide_esite>
-0.117750579950281

> <r_i_glide_emodel>
-90.801799953956

> <r_i_glide_energy>
-60.2530641555786

> <r_i_glide_einternal>
2.66972684860229

> <i_i_glide_confnum>
19

> <i_i_glide_posenum>
232

> <r_i_glide_eff_state_penalty>
0.0123459

$$$$
