CDK2_32
                    3D
 Schrodinger Suite 2020-3.
 54 57  0  0  1  0            999 V2000
    5.0130   41.8789   44.3538 C   0  0  0  0  0  0
    4.3418   40.9265   45.1486 O   0  0  0  0  0  0
    4.5884   40.8804   46.4991 C   0  0  0  0  0  0
    5.6864   41.5043   47.1005 C   0  0  0  0  0  0
    5.8612   41.4938   48.4701 C   0  0  0  0  0  0
    7.0566   42.0383   48.9379 N   0  0  0  0  0  0
    7.3139   43.2751   49.5112 C   0  0  0  0  0  0
    6.3017   43.9015   50.1559 N   0  0  0  0  0  0
    6.6155   45.0046   50.8889 C   0  0  0  0  0  0
    5.6556   45.6377   51.6577 O   0  0  0  0  0  0
    4.3520   45.0525   51.7540 C   0  0  0  0  0  0
    3.6423   45.5197   53.0407 C   0  0  0  0  0  0
    2.2268   44.9030   53.1406 C   0  0  0  0  0  0
    1.4774   45.4118   54.3872 C   0  0  0  0  0  0
    2.2792   45.1506   55.6823 C   0  0  0  0  0  0
    3.7388   45.6467   55.5903 C   0  0  0  0  0  0
    4.4341   45.1311   54.3141 C   0  0  0  0  0  0
    7.9382   45.4680   50.9549 C   0  0  0  0  0  0
    8.5399   46.4832   51.6536 N   0  0  0  0  0  0
    9.8146   46.3293   51.3884 C   0  0  0  0  0  0
   10.0929   45.2808   50.5376 N   0  0  0  0  0  0
    8.8813   44.7249   50.2082 C   0  0  0  0  0  0
    8.6186   43.6611   49.4463 N   0  0  0  0  0  0
    4.9072   40.8815   49.2822 C   0  0  0  0  0  0
    3.8308   40.2043   48.6941 C   0  0  0  0  0  0
    3.6963   40.1588   47.2977 C   0  0  0  0  0  0
    2.4147   39.1720   46.5020 S   0  0  0  0  0  0
    3.0746   38.5297   45.0224 N   0  0  0  0  0  0
    2.1367   38.0049   47.3380 O   0  0  0  0  0  0
    1.3363   40.0956   46.1371 O   0  0  0  0  0  0
   11.0250   45.0222   50.2336 H   0  0  0  0  0  0
    4.7146   41.6809   43.3377 H   0  0  0  0  0  0
    4.7324   42.8976   44.6161 H   0  0  0  0  0  0
    6.0893   41.7673   44.3883 H   0  0  0  0  0  0
    6.4383   42.0138   46.5372 H   0  0  0  0  0  0
    7.8584   41.7180   48.4034 H   0  0  0  0  0  0
    4.3950   43.9623   51.7756 H   0  0  0  0  0  0
    3.7782   45.3362   50.8709 H   0  0  0  0  0  0
    3.5416   46.6063   53.0142 H   0  0  0  0  0  0
    2.2923   43.8126   53.1544 H   0  0  0  0  0  0
    1.6530   45.1347   52.2415 H   0  0  0  0  0  0
    0.4974   44.9398   54.4543 H   0  0  0  0  0  0
    1.2910   46.4791   54.2776 H   0  0  0  0  0  0
    2.2844   44.0805   55.8927 H   0  0  0  0  0  0
    1.7830   45.6206   56.5327 H   0  0  0  0  0  0
    4.2924   45.3117   56.4695 H   0  0  0  0  0  0
    3.7590   46.7374   55.6098 H   0  0  0  0  0  0
    5.4513   45.5203   54.2595 H   0  0  0  0  0  0
    4.5583   44.0475   54.3621 H   0  0  0  0  0  0
   10.6194   46.9407   51.7691 H   0  0  0  0  0  0
    5.0322   40.8805   50.3550 H   0  0  0  0  0  0
    3.1436   39.6810   49.3382 H   0  0  0  0  0  0
    2.4545   37.8401   44.5938 H   0  0  0  0  0  0
    3.2483   39.2850   44.3529 H   0  0  0  0  0  0
  1  2  1  0  0  0
  1 32  1  0  0  0
  1 33  1  0  0  0
  1 34  1  0  0  0
  2  3  1  0  0  0
  3 26  1  0  0  0
  3  4  2  0  0  0
  4  5  1  0  0  0
  4 35  1  0  0  0
  5  6  1  0  0  0
  5 24  2  0  0  0
  6  7  1  0  0  0
  6 36  1  0  0  0
  7 23  1  0  0  0
  7  8  2  0  0  0
  8  9  1  0  0  0
  9 10  1  0  0  0
  9 18  2  0  0  0
 10 11  1  0  0  0
 11 12  1  0  0  0
 11 37  1  0  0  0
 11 38  1  0  0  0
 12 17  1  0  0  0
 12 13  1  0  0  0
 12 39  1  0  0  0
 13 14  1  0  0  0
 13 40  1  0  0  0
 13 41  1  0  0  0
 14 15  1  0  0  0
 14 42  1  0  0  0
 14 43  1  0  0  0
 15 16  1  0  0  0
 15 44  1  0  0  0
 15 45  1  0  0  0
 16 17  1  0  0  0
 16 46  1  0  0  0
 16 47  1  0  0  0
 17 48  1  0  0  0
 17 49  1  0  0  0
 18 22  1  0  0  0
 18 19  1  0  0  0
 19 20  2  0  0  0
 20 21  1  0  0  0
 20 50  1  0  0  0
 21 31  1  0  0  0
 21 22  1  0  0  0
 22 23  2  0  0  0
 24 25  1  0  0  0
 24 51  1  0  0  0
 25 26  2  0  0  0
 25 52  1  0  0  0
 26 27  1  0  0  0
 27 28  1  0  0  0
 27 29  2  0  0  0
 27 30  2  0  0  0
 28 53  1  0  0  0
 28 54  1  0  0  0
M  END
> <s_m_source_file>
/home/user-home/yujie/0_PBCNetv2/data/FEP/CDK2/inp_ligprep.csv

> <i_m_source_file_index>
5

> <i_lp_mmshare_version>
51139

> <i_f3d_flags>
0

> <s_epik_input>
W05IMl1TKD1PKSg9TyljMVtjSF1bY0hdYyhbY0hdYzFPW0NIM10pW05IXWMobmMoYzIzKVtuSF1bY0hdbjMpbmMyT1tDSDJdW0NIXTRbQ0gyXVtDSDJdW0NIMl1bQ0gyXVtDSDJdNA==

> <s_epik_cmdline>
J2VwaWtfcHl0aG9uJywgJy1waHQnLCAnMi4wJywgJy1waCcsICc3LjQnLCAnLXRuJywgJzgnLCAnLW1hJywgJzIwMCcsICctaW1hZScsICc8aW5maWxlLm1hZT4nLCAnLW9tYWUnLCAnPG91dGZpbGUubWFlPic=

> <r_lp_tautomer_probability>
0.990859

> <r_epik_Ionization_Penalty>
  0.0276

> <r_epik_Ionization_Penalty_Charging>
  0.0000

> <r_epik_Ionization_Penalty_Neutral>
  0.0276

> <r_epik_State_Penalty>
  0.0126

> <r_epik_Charging_Adjusted_Penalty>
0.0126455

> <i_epik_Tot_Q>
0

> <i_epik_Tot_abs_Q>
0

> <s_lp_Force_Field>
OPLS3e

> <r_lp_Energy>
21.8166

> <b_lp_Chiralities_Consistent>
1

> <s_lp_Variant>
CDK2_32-1

> <s_i_glide_gridfile>
CDK2-001-gridgen

> <i_i_glide_lignum>
9

> <i_i_glide_rotatable_bonds>
7

> <r_i_docking_score>
-8.09585732929076

> <r_i_glide_ligand_efficiency>
-0.269861910976359

> <r_i_glide_ligand_efficiency_sa>
-0.838523700953906

> <r_i_glide_ligand_efficiency_ln>
-1.83946699664564

> <r_i_glide_gscore>
-8.10850282929076

> <r_i_glide_lipo>
-1.83003776954905

> <r_i_glide_hbond>
-0.616512413160677

> <r_i_glide_metal>
-0

> <r_i_glide_rewards>
-2.35635138379941

> <r_i_glide_evdw>
-43.5459671020508

> <r_i_glide_ecoul>
-8.97822093963623

> <r_i_glide_erotb>
0.372333971680328

> <r_i_glide_esite>
-0.153903738413969

> <r_i_glide_emodel>
-69.7690762661648

> <r_i_glide_energy>
-52.524188041687

> <r_i_glide_einternal>
11.7277717590332

> <i_i_glide_confnum>
111

> <i_i_glide_posenum>
251

> <r_i_glide_eff_state_penalty>
0.0126455

$$$$
