CDK2_26
                    3D
 Schrodinger Suite 2020-3.
 49 52  0  0  1  0            999 V2000
    2.6352   39.0255   46.8971 C   0  0  0  0  0  0
    2.8903   39.7029   48.1258 O   0  0  0  0  0  0
    4.0253   40.4803   48.2406 C   0  0  0  0  0  0
    4.3322   40.9374   49.5204 C   0  0  0  0  0  0
    5.4862   41.6816   49.7370 C   0  0  0  0  0  0
    6.3334   41.9821   48.6682 C   0  0  0  0  0  0
    7.4888   42.7566   48.8216 N   0  0  0  0  0  0
    7.7455   43.8534   49.6380 C   0  0  0  0  0  0
    6.6916   44.4462   50.2543 N   0  0  0  0  0  0
    6.9478   45.4663   51.1100 C   0  0  0  0  0  0
    5.9192   46.0808   51.8027 O   0  0  0  0  0  0
    4.5680   45.6415   51.6003 C   0  0  0  0  0  0
    3.7446   45.7924   52.8939 C   0  0  0  0  0  0
    2.3072   45.2440   52.7026 C   0  0  0  0  0  0
    1.4536   45.4183   53.9730 C   0  0  0  0  0  0
    2.1267   44.7841   55.2100 C   0  0  0  0  0  0
    3.5937   45.2373   55.3791 C   0  0  0  0  0  0
    4.3985   45.0446   54.0802 C   0  0  0  0  0  0
    8.2627   45.9129   51.3047 C   0  0  0  0  0  0
    8.8050   46.9126   52.0658 N   0  0  0  0  0  0
   10.0899   46.8254   51.8149 C   0  0  0  0  0  0
   10.4351   45.8027   50.9534 N   0  0  0  0  0  0
    9.2581   45.2110   50.5809 C   0  0  0  0  0  0
    9.0567   44.1957   49.7376 N   0  0  0  0  0  0
    6.0448   41.5040   47.3928 C   0  0  0  0  0  0
    4.8875   40.7706   47.1724 C   0  0  0  0  0  0
   11.3783   45.5841   50.6533 H   0  0  0  0  0  0
    1.7590   38.3889   47.0092 H   0  0  0  0  0  0
    2.4305   39.7295   46.0881 H   0  0  0  0  0  0
    3.4720   38.3836   46.6112 H   0  0  0  0  0  0
    3.6833   40.7030   50.3526 H   0  0  0  0  0  0
    5.7113   42.0339   50.7342 H   0  0  0  0  0  0
    8.2955   42.3941   48.3310 H   0  0  0  0  0  0
    4.4918   44.5976   51.2876 H   0  0  0  0  0  0
    4.1265   46.2399   50.8005 H   0  0  0  0  0  0
    3.6782   46.8521   53.1526 H   0  0  0  0  0  0
    2.3435   44.1894   52.4213 H   0  0  0  0  0  0
    1.8298   45.7400   51.8563 H   0  0  0  0  0  0
    0.4658   44.9808   53.8226 H   0  0  0  0  0  0
    1.2917   46.4809   54.1495 H   0  0  0  0  0  0
    2.0911   43.6967   55.1131 H   0  0  0  0  0  0
    1.5615   45.0227   56.1115 H   0  0  0  0  0  0
    4.0626   44.6744   56.1858 H   0  0  0  0  0  0
    3.6237   46.2866   55.6829 H   0  0  0  0  0  0
    5.4247   45.3872   54.2245 H   0  0  0  0  0  0
    4.4934   43.9809   53.8480 H   0  0  0  0  0  0
   10.8613   47.4534   52.2349 H   0  0  0  0  0  0
    6.7079   41.7074   46.5636 H   0  0  0  0  0  0
    4.6902   40.4130   46.1736 H   0  0  0  0  0  0
  1  2  1  0  0  0
  1 28  1  0  0  0
  1 29  1  0  0  0
  1 30  1  0  0  0
  2  3  1  0  0  0
  3 26  1  0  0  0
  3  4  2  0  0  0
  4  5  1  0  0  0
  4 31  1  0  0  0
  5  6  2  0  0  0
  5 32  1  0  0  0
  6  7  1  0  0  0
  6 25  1  0  0  0
  7  8  1  0  0  0
  7 33  1  0  0  0
  8 24  1  0  0  0
  8  9  2  0  0  0
  9 10  1  0  0  0
 10 11  1  0  0  0
 10 19  2  0  0  0
 11 12  1  0  0  0
 12 13  1  0  0  0
 12 34  1  0  0  0
 12 35  1  0  0  0
 13 18  1  0  0  0
 13 14  1  0  0  0
 13 36  1  0  0  0
 14 15  1  0  0  0
 14 37  1  0  0  0
 14 38  1  0  0  0
 15 16  1  0  0  0
 15 39  1  0  0  0
 15 40  1  0  0  0
 16 17  1  0  0  0
 16 41  1  0  0  0
 16 42  1  0  0  0
 17 18  1  0  0  0
 17 43  1  0  0  0
 17 44  1  0  0  0
 18 45  1  0  0  0
 18 46  1  0  0  0
 19 23  1  0  0  0
 19 20  1  0  0  0
 20 21  2  0  0  0
 21 22  1  0  0  0
 21 47  1  0  0  0
 22 27  1  0  0  0
 22 23  1  0  0  0
 23 24  2  0  0  0
 25 26  2  0  0  0
 25 48  1  0  0  0
 26 49  1  0  0  0
M  END
> <s_m_source_file>
/home/user-home/yujie/0_PBCNetv2/data/FEP/CDK2/inp_ligprep.csv

> <i_m_source_file_index>
1

> <i_lp_mmshare_version>
51139

> <i_f3d_flags>
0

> <s_epik_input>
W0NIM11PYzFbY0hdW2NIXWMoW2NIXVtjSF0xKVtOSF1jKG5jKGMyMylbbkhdW2NIXW4zKW5jMk9bQ0gyXVtDSF00W0NIMl1bQ0gyXVtDSDJdW0NIMl1bQ0gyXTQ=

> <s_epik_cmdline>
J2VwaWtfcHl0aG9uJywgJy1waHQnLCAnMi4wJywgJy1waCcsICc3LjQnLCAnLXRuJywgJzgnLCAnLW1hJywgJzIwMCcsICctaW1hZScsICc8aW5maWxlLm1hZT4nLCAnLW9tYWUnLCAnPG91dGZpbGUubWFlPic=

> <r_lp_tautomer_probability>
0.990859

> <r_epik_Ionization_Penalty>
  0.0272

> <r_epik_Ionization_Penalty_Charging>
  0.0000

> <r_epik_Ionization_Penalty_Neutral>
  0.0272

> <r_epik_State_Penalty>
  0.0125

> <r_epik_Charging_Adjusted_Penalty>
0.0124756

> <i_epik_Tot_Q>
0

> <i_epik_Tot_abs_Q>
0

> <s_lp_Force_Field>
OPLS3e

> <r_lp_Energy>
29.9846

> <b_lp_Chiralities_Consistent>
1

> <s_lp_Variant>
CDK2_26-1

> <s_i_glide_gridfile>
CDK2-001-gridgen

> <i_i_glide_lignum>
1

> <i_i_glide_rotatable_bonds>
6

> <r_i_docking_score>
-9.40379146817218

> <r_i_glide_ligand_efficiency>
-0.361684287237391

> <r_i_glide_ligand_efficiency_sa>
-1.07148827778182

> <r_i_glide_ligand_efficiency_ln>
-2.20844956994367

> <r_i_glide_gscore>
-9.41626706817218

> <r_i_glide_lipo>
-2.31629433026325

> <r_i_glide_hbond>
-0.646014683690814

> <r_i_glide_metal>
-0

> <r_i_glide_rewards>
-3.82420671865112

> <r_i_glide_evdw>
-42.3547325134277

> <r_i_glide_ecoul>
-8.5097541809082

> <r_i_glide_erotb>
0.764448417240626

> <r_i_glide_esite>
0

> <r_i_glide_emodel>
-79.8812918456574

> <r_i_glide_energy>
-50.8644866943359

> <r_i_glide_einternal>
2.1616518497467

> <i_i_glide_confnum>
15

> <i_i_glide_posenum>
368

> <r_i_glide_eff_state_penalty>
0.0124756

$$$$
