CDK2_29
                    3D
 Schrodinger Suite 2020-3.
 56 59  0  0  1  0            999 V2000
    2.9641   39.8684   43.9182 C   0  0  0  0  0  0
    3.2862   38.8294   44.9230 N   0  0  0  0  0  0
    3.2427   37.4352   44.4386 C   0  0  0  0  0  0
    2.7745   39.1349   46.6013 S   0  0  0  0  0  0
    2.8455   37.8692   47.3384 O   0  0  0  0  0  0
    1.5150   39.8845   46.5377 O   0  0  0  0  0  0
    3.9968   40.2206   47.3590 C   0  0  0  0  0  0
    3.9932   40.5094   48.7350 C   0  0  0  0  0  0
    5.0240   41.2790   49.2996 C   0  0  0  0  0  0
    6.0849   41.7013   48.4927 C   0  0  0  0  0  0
    7.2186   42.3918   48.9375 N   0  0  0  0  0  0
    7.4105   43.5504   49.6829 C   0  0  0  0  0  0
    6.3430   44.1638   50.2591 N   0  0  0  0  0  0
    6.5983   45.2805   50.9967 C   0  0  0  0  0  0
    5.5838   46.0198   51.5739 O   0  0  0  0  0  0
    4.2145   45.6554   51.3942 C   0  0  0  0  0  0
    3.6712   45.0206   52.6904 C   0  0  0  0  0  0
    3.7759   45.9789   53.9030 C   0  0  0  0  0  0
    3.3150   45.2878   55.2012 C   0  0  0  0  0  0
    1.8829   44.7243   55.0648 C   0  0  0  0  0  0
    1.6943   43.8635   53.7940 C   0  0  0  0  0  0
    2.1953   44.5932   52.5314 C   0  0  0  0  0  0
    7.9107   45.7277   51.1973 C   0  0  0  0  0  0
    8.4410   46.7684   51.9153 N   0  0  0  0  0  0
    9.7327   46.6409   51.7381 C   0  0  0  0  0  0
   10.0902   45.5781   50.9362 N   0  0  0  0  0  0
    8.9149   44.9881   50.5376 C   0  0  0  0  0  0
    8.7162   43.9379   49.7377 N   0  0  0  0  0  0
    6.0680   41.3974   47.1440 C   0  0  0  0  0  0
    5.0236   40.7098   46.5617 C   0  0  0  0  0  0
   11.0403   45.3322   50.6876 H   0  0  0  0  0  0
    1.9312   39.7568   43.5890 H   0  0  0  0  0  0
    3.0667   40.8612   44.3559 H   0  0  0  0  0  0
    3.6394   39.7947   43.0653 H   0  0  0  0  0  0
    2.2098   37.1457   44.2417 H   0  0  0  0  0  0
    3.8380   37.3336   43.5309 H   0  0  0  0  0  0
    3.6457   36.7667   45.1986 H   0  0  0  0  0  0
    3.2290   40.1075   49.3819 H   0  0  0  0  0  0
    5.0294   41.4926   50.3580 H   0  0  0  0  0  0
    8.0549   42.1323   48.4292 H   0  0  0  0  0  0
    4.0351   45.0062   50.5362 H   0  0  0  0  0  0
    3.6631   46.5716   51.1780 H   0  0  0  0  0  0
    4.2601   44.1269   52.9078 H   0  0  0  0  0  0
    3.1986   46.8875   53.7208 H   0  0  0  0  0  0
    4.8040   46.3243   54.0204 H   0  0  0  0  0  0
    3.3616   45.9899   56.0359 H   0  0  0  0  0  0
    4.0045   44.4798   55.4503 H   0  0  0  0  0  0
    1.1733   45.5530   55.0462 H   0  0  0  0  0  0
    1.6407   44.1297   55.9467 H   0  0  0  0  0  0
    0.6438   43.5951   53.6783 H   0  0  0  0  0  0
    2.2351   42.9222   53.9078 H   0  0  0  0  0  0
    2.0914   43.9404   51.6636 H   0  0  0  0  0  0
    1.5702   45.4595   52.3063 H   0  0  0  0  0  0
   10.4914   47.2841   52.1573 H   0  0  0  0  0  0
    6.8900   41.6810   46.5377 H   0  0  0  0  0  0
    5.0913   40.4909   45.5086 H   0  0  0  0  0  0
  1  2  1  0  0  0
  1 32  1  0  0  0
  1 33  1  0  0  0
  1 34  1  0  0  0
  2  3  1  0  0  0
  2  4  1  0  0  0
  3 35  1  0  0  0
  3 36  1  0  0  0
  3 37  1  0  0  0
  4  5  2  0  0  0
  4  6  2  0  0  0
  4  7  1  0  0  0
  7 30  1  0  0  0
  7  8  2  0  0  0
  8  9  1  0  0  0
  8 38  1  0  0  0
  9 10  2  0  0  0
  9 39  1  0  0  0
 10 11  1  0  0  0
 10 29  1  0  0  0
 11 12  1  0  0  0
 11 40  1  0  0  0
 12 28  1  0  0  0
 12 13  2  0  0  0
 13 14  1  0  0  0
 14 15  1  0  0  0
 14 23  2  0  0  0
 15 16  1  0  0  0
 16 17  1  0  0  0
 16 41  1  0  0  0
 16 42  1  0  0  0
 17 22  1  0  0  0
 17 18  1  0  0  0
 17 43  1  0  0  0
 18 19  1  0  0  0
 18 44  1  0  0  0
 18 45  1  0  0  0
 19 20  1  0  0  0
 19 46  1  0  0  0
 19 47  1  0  0  0
 20 21  1  0  0  0
 20 48  1  0  0  0
 20 49  1  0  0  0
 21 22  1  0  0  0
 21 50  1  0  0  0
 21 51  1  0  0  0
 22 52  1  0  0  0
 22 53  1  0  0  0
 23 27  1  0  0  0
 23 24  1  0  0  0
 24 25  2  0  0  0
 25 26  1  0  0  0
 25 54  1  0  0  0
 26 31  1  0  0  0
 26 27  1  0  0  0
 27 28  2  0  0  0
 29 30  2  0  0  0
 29 55  1  0  0  0
 30 56  1  0  0  0
M  END
> <s_m_source_file>
/home/user-home/yujie/0_PBCNetv2/data/FEP/CDK2/inp_ligprep.csv

> <i_m_source_file_index>
3

> <i_lp_mmshare_version>
51139

> <i_f3d_flags>
0

> <s_epik_input>
W0NIM11OKFtDSDNdKVMoPU8pKD1PKWMxW2NIXVtjSF1jKFtjSF1bY0hdMSlbTkhdYyhuYyhjMjMpW25IXVtjSF1uMyluYzJPW0NIMl1bQ0hdNFtDSDJdW0NIMl1bQ0gyXVtDSDJdW0NIMl00

> <s_epik_cmdline>
J2VwaWtfcHl0aG9uJywgJy1waHQnLCAnMi4wJywgJy1waCcsICc3LjQnLCAnLXRuJywgJzgnLCAnLW1hJywgJzIwMCcsICctaW1hZScsICc8aW5maWxlLm1hZT4nLCAnLW9tYWUnLCAnPG91dGZpbGUubWFlPic=

> <r_lp_tautomer_probability>
0.990859

> <r_epik_Ionization_Penalty>
  0.0272

> <r_epik_Ionization_Penalty_Charging>
  0.0000

> <r_epik_Ionization_Penalty_Neutral>
  0.0272

> <r_epik_State_Penalty>
  0.0127

> <r_epik_Charging_Adjusted_Penalty>
0.0126715

> <i_epik_Tot_Q>
0

> <i_epik_Tot_abs_Q>
0

> <s_lp_Force_Field>
OPLS3e

> <r_lp_Energy>
29.7791

> <b_lp_Chiralities_Consistent>
1

> <s_lp_Variant>
CDK2_29-1

> <s_i_glide_gridfile>
CDK2-001-gridgen

> <i_i_glide_lignum>
5

> <i_i_glide_rotatable_bonds>
7

> <r_i_docking_score>
-6.23569096243819

> <r_i_glide_ligand_efficiency>
-0.207856365414606

> <r_i_glide_ligand_efficiency_sa>
-0.645858054453458

> <r_i_glide_ligand_efficiency_ln>
-1.41681692996082

> <r_i_glide_gscore>
-6.24836246243819

> <r_i_glide_lipo>
-1.97324073320846

> <r_i_glide_hbond>
-0.449392433189005

> <r_i_glide_metal>
-0

> <r_i_glide_rewards>
-0.324285174966084

> <r_i_glide_evdw>
-48.8597106933594

> <r_i_glide_ecoul>
-10.3612756729126

> <r_i_glide_erotb>
0.643596091019836

> <r_i_glide_esite>
-0.147863326489627

> <r_i_glide_emodel>
-66.0104709334002

> <r_i_glide_energy>
-59.220986366272

> <r_i_glide_einternal>
12.174708366394

> <i_i_glide_confnum>
54

> <i_i_glide_posenum>
23

> <r_i_glide_eff_state_penalty>
0.0126715

$$$$
