CDK2_30
                    3D
 Schrodinger Suite 2020-3.
 51 54  0  0  1  0            999 V2000
    3.3159   38.7677   44.8873 C   0  0  0  0  0  0
    2.7477   39.1646   46.6379 S   0  0  0  0  0  0
    2.7547   37.9055   47.3857 O   0  0  0  0  0  0
    1.5224   39.9616   46.5374 O   0  0  0  0  0  0
    3.9958   40.2258   47.3807 C   0  0  0  0  0  0
    4.0221   40.4820   48.7625 C   0  0  0  0  0  0
    5.0593   41.2450   49.3202 C   0  0  0  0  0  0
    6.1023   41.6844   48.5005 C   0  0  0  0  0  0
    7.2443   42.3743   48.9374 N   0  0  0  0  0  0
    7.4290   43.5259   49.6978 C   0  0  0  0  0  0
    6.3606   44.0738   50.3261 N   0  0  0  0  0  0
    6.5890   45.1650   51.1086 C   0  0  0  0  0  0
    5.5611   45.7477   51.8231 O   0  0  0  0  0  0
    4.2815   45.1093   51.8410 C   0  0  0  0  0  0
    3.5113   45.5364   53.1043 C   0  0  0  0  0  0
    2.1212   44.8611   53.1673 C   0  0  0  0  0  0
    1.3187   45.3515   54.3888 C   0  0  0  0  0  0
    2.0938   45.1433   55.7089 C   0  0  0  0  0  0
    3.5390   45.6835   55.6436 C   0  0  0  0  0  0
    4.2826   45.1746   54.3962 C   0  0  0  0  0  0
    7.8832   45.6862   51.2606 C   0  0  0  0  0  0
    8.3983   46.7224   51.9988 N   0  0  0  0  0  0
    9.6896   46.6539   51.7769 C   0  0  0  0  0  0
   10.0604   45.6325   50.9297 N   0  0  0  0  0  0
    8.8967   45.0107   50.5436 C   0  0  0  0  0  0
    8.7199   43.9619   49.7362 N   0  0  0  0  0  0
    6.0669   41.3993   47.1472 C   0  0  0  0  0  0
    5.0037   40.7343   46.5704 C   0  0  0  0  0  0
   11.0122   45.4259   50.6537 H   0  0  0  0  0  0
    2.6100   38.0608   44.4549 H   0  0  0  0  0  0
    3.3228   39.6823   44.2963 H   0  0  0  0  0  0
    4.3088   38.3198   44.9334 H   0  0  0  0  0  0
    3.2679   40.0720   49.4162 H   0  0  0  0  0  0
    5.0832   41.4395   50.3827 H   0  0  0  0  0  0
    8.0780   42.1317   48.4124 H   0  0  0  0  0  0
    4.3655   44.0200   51.8473 H   0  0  0  0  0  0
    3.7349   45.3887   50.9391 H   0  0  0  0  0  0
    3.3676   46.6183   53.0774 H   0  0  0  0  0  0
    2.2295   43.7749   53.1888 H   0  0  0  0  0  0
    1.5655   45.0662   52.2508 H   0  0  0  0  0  0
    0.3557   44.8421   54.4365 H   0  0  0  0  0  0
    1.0972   46.4120   54.2663 H   0  0  0  0  0  0
    2.1270   44.0797   55.9423 H   0  0  0  0  0  0
    1.5618   45.6141   56.5366 H   0  0  0  0  0  0
    4.0883   45.3943   56.5391 H   0  0  0  0  0  0
    3.5203   46.7746   55.6416 H   0  0  0  0  0  0
    5.2873   45.5992   54.3695 H   0  0  0  0  0  0
    4.4430   44.0957   54.4545 H   0  0  0  0  0  0
   10.4440   47.3054   52.1953 H   0  0  0  0  0  0
    6.8897   41.6825   46.5378 H   0  0  0  0  0  0
    5.0388   40.5507   45.5088 H   0  0  0  0  0  0
  1  2  1  0  0  0
  1 30  1  0  0  0
  1 31  1  0  0  0
  1 32  1  0  0  0
  2  3  2  0  0  0
  2  4  2  0  0  0
  2  5  1  0  0  0
  5 28  1  0  0  0
  5  6  2  0  0  0
  6  7  1  0  0  0
  6 33  1  0  0  0
  7  8  2  0  0  0
  7 34  1  0  0  0
  8  9  1  0  0  0
  8 27  1  0  0  0
  9 10  1  0  0  0
  9 35  1  0  0  0
 10 26  1  0  0  0
 10 11  2  0  0  0
 11 12  1  0  0  0
 12 13  1  0  0  0
 12 21  2  0  0  0
 13 14  1  0  0  0
 14 15  1  0  0  0
 14 36  1  0  0  0
 14 37  1  0  0  0
 15 20  1  0  0  0
 15 16  1  0  0  0
 15 38  1  0  0  0
 16 17  1  0  0  0
 16 39  1  0  0  0
 16 40  1  0  0  0
 17 18  1  0  0  0
 17 41  1  0  0  0
 17 42  1  0  0  0
 18 19  1  0  0  0
 18 43  1  0  0  0
 18 44  1  0  0  0
 19 20  1  0  0  0
 19 45  1  0  0  0
 19 46  1  0  0  0
 20 47  1  0  0  0
 20 48  1  0  0  0
 21 25  1  0  0  0
 21 22  1  0  0  0
 22 23  2  0  0  0
 23 24  1  0  0  0
 23 49  1  0  0  0
 24 29  1  0  0  0
 24 25  1  0  0  0
 25 26  2  0  0  0
 27 28  2  0  0  0
 27 50  1  0  0  0
 28 51  1  0  0  0
M  END
> <s_m_source_file>
/home/user-home/yujie/0_PBCNetv2/data/FEP/CDK2/inp_ligprep.csv

> <i_m_source_file_index>
13

> <i_lp_mmshare_version>
51139

> <i_f3d_flags>
0

> <s_epik_input>
W0NIM11TKD1PKSg9TyljMVtjSF1bY0hdYyhbY0hdW2NIXTEpW05IXWMobmMoYzIzKVtuSF1bY0hdbjMpbmMyT1tDSDJdW0NIXTRbQ0gyXVtDSDJdW0NIMl1bQ0gyXVtDSDJdNA==

> <s_epik_cmdline>
J2VwaWtfcHl0aG9uJywgJy1waHQnLCAnMi4wJywgJy1waCcsICc3LjQnLCAnLXRuJywgJzgnLCAnLW1hJywgJzIwMCcsICctaW1hZScsICc8aW5maWxlLm1hZT4nLCAnLW9tYWUnLCAnPG91dGZpbGUubWFlPic=

> <r_lp_tautomer_probability>
0.990859

> <r_epik_Ionization_Penalty>
  0.0272

> <r_epik_Ionization_Penalty_Charging>
  0.0000

> <r_epik_Ionization_Penalty_Neutral>
  0.0272

> <r_epik_State_Penalty>
  0.0665

> <r_epik_Charging_Adjusted_Penalty>
0.0665287

> <i_epik_Tot_Q>
0

> <i_epik_Tot_abs_Q>
0

> <s_lp_Force_Field>
OPLS3e

> <r_lp_Energy>
18.9421

> <b_lp_Chiralities_Consistent>
1

> <s_lp_Variant>
CDK2_30-1

> <s_i_glide_gridfile>
CDK2-001-gridgen

> <i_i_glide_lignum>
25

> <i_i_glide_rotatable_bonds>
6

> <r_i_docking_score>
-8.82499365119225

> <r_i_glide_ligand_efficiency>
-0.315178344685437

> <r_i_glide_ligand_efficiency_sa>
-0.957067084582778

> <r_i_glide_ligand_efficiency_ln>
-2.03706764776794

> <r_i_glide_gscore>
-8.89152235119225

> <r_i_glide_lipo>
-1.79449030088691

> <r_i_glide_hbond>
-0.428681089851077

> <r_i_glide_metal>
-0

> <r_i_glide_rewards>
-3.01432096404472

> <r_i_glide_evdw>
-46.6499443054199

> <r_i_glide_ecoul>
-11.9676475524902

> <r_i_glide_erotb>
0.608431240417788

> <r_i_glide_esite>
-0.13481688868279

> <r_i_glide_emodel>
-82.7234050127935

> <r_i_glide_energy>
-58.6175918579102

> <r_i_glide_einternal>
7.89418363571167

> <i_i_glide_confnum>
65

> <i_i_glide_posenum>
315

> <r_i_glide_eff_state_penalty>
0.0665287

$$$$
