CDK2_31
                    3D
 Schrodinger Suite 2020-3.
 50 53  0  0  1  0            999 V2000
    3.1770   38.2269   45.5187 C   0  0  0  0  0  0
    2.5131   39.0907   47.0195 S   0  0  2  0  0  0
    1.4054   40.0289   46.5373 O   0  0  0  0  0  0
    3.9323   40.1646   47.4798 C   0  0  0  0  0  0
    4.8182   40.6361   46.5137 C   0  0  0  0  0  0
    5.9264   41.3790   46.9005 C   0  0  0  0  0  0
    6.1342   41.7250   48.2349 C   0  0  0  0  0  0
    7.2862   42.4808   48.5382 N   0  0  0  0  0  0
    7.5455   43.5146   49.4363 C   0  0  0  0  0  0
    6.4898   44.0572   50.0821 N   0  0  0  0  0  0
    6.7122   45.0911   50.9348 C   0  0  0  0  0  0
    5.6540   45.6818   51.6025 O   0  0  0  0  0  0
    4.3205   45.2426   51.3058 C   0  0  0  0  0  0
    3.3610   45.4567   52.4876 C   0  0  0  0  0  0
    1.9756   44.8511   52.1513 C   0  0  0  0  0  0
    0.9662   45.0337   53.2987 C   0  0  0  0  0  0
    1.5171   44.4803   54.6263 C   0  0  0  0  0  0
    2.9164   45.0359   54.9628 C   0  0  0  0  0  0
    3.8938   44.8153   53.7922 C   0  0  0  0  0  0
    8.0137   45.5624   51.1540 C   0  0  0  0  0  0
    8.5307   46.5581   51.9442 N   0  0  0  0  0  0
    9.8230   46.4768   51.7376 C   0  0  0  0  0  0
   10.1951   45.4739   50.8673 N   0  0  0  0  0  0
    9.0312   44.8810   50.4404 C   0  0  0  0  0  0
    8.8523   43.8839   49.5618 N   0  0  0  0  0  0
    5.2270   41.2797   49.2038 C   0  0  0  0  0  0
    4.1327   40.4912   48.8277 C   0  0  0  0  0  0
   11.1466   45.2786   50.5869 H   0  0  0  0  0  0
    4.1222   37.7348   45.7393 H   0  0  0  0  0  0
    2.4624   37.4688   45.1930 H   0  0  0  0  0  0
    3.3102   38.9218   44.6890 H   0  0  0  0  0  0
    4.6898   40.4054   45.4710 H   0  0  0  0  0  0
    6.6260   41.6807   46.1421 H   0  0  0  0  0  0
    8.1189   42.1414   48.0656 H   0  0  0  0  0  0
    4.2756   44.1815   51.0518 H   0  0  0  0  0  0
    3.9660   45.7900   50.4313 H   0  0  0  0  0  0
    3.2372   46.5267   52.6628 H   0  0  0  0  0  0
    2.0801   43.7866   51.9343 H   0  0  0  0  0  0
    1.5875   45.2846   51.2293 H   0  0  0  0  0  0
    0.0255   44.5406   53.0518 H   0  0  0  0  0  0
    0.7292   46.0864   53.4161 H   0  0  0  0  0  0
    1.5824   43.3950   54.5380 H   0  0  0  0  0  0
    0.8238   44.6886   55.4420 H   0  0  0  0  0  0
    3.2995   44.5566   55.8642 H   0  0  0  0  0  0
    2.8491   46.1012   55.1887 H   0  0  0  0  0  0
    4.8790   45.2140   54.0373 H   0  0  0  0  0  0
    4.0591   43.7457   53.6432 H   0  0  0  0  0  0
   10.5754   47.1154   52.1795 H   0  0  0  0  0  0
    5.3812   41.5249   50.2447 H   0  0  0  0  0  0
    3.4554   40.1293   49.5886 H   0  0  0  0  0  0
  1  2  1  0  0  0
  1 29  1  0  0  0
  1 30  1  0  0  0
  1 31  1  0  0  0
  2  3  2  0  0  0
  2  4  1  0  0  0
  4 27  1  0  0  0
  4  5  2  0  0  0
  5  6  1  0  0  0
  5 32  1  0  0  0
  6  7  2  0  0  0
  6 33  1  0  0  0
  7  8  1  0  0  0
  7 26  1  0  0  0
  8  9  1  0  0  0
  8 34  1  0  0  0
  9 25  1  0  0  0
  9 10  2  0  0  0
 10 11  1  0  0  0
 11 12  1  0  0  0
 11 20  2  0  0  0
 12 13  1  0  0  0
 13 14  1  0  0  0
 13 35  1  0  0  0
 13 36  1  0  0  0
 14 19  1  0  0  0
 14 15  1  0  0  0
 14 37  1  0  0  0
 15 16  1  0  0  0
 15 38  1  0  0  0
 15 39  1  0  0  0
 16 17  1  0  0  0
 16 40  1  0  0  0
 16 41  1  0  0  0
 17 18  1  0  0  0
 17 42  1  0  0  0
 17 43  1  0  0  0
 18 19  1  0  0  0
 18 44  1  0  0  0
 18 45  1  0  0  0
 19 46  1  0  0  0
 19 47  1  0  0  0
 20 24  1  0  0  0
 20 21  1  0  0  0
 21 22  2  0  0  0
 22 23  1  0  0  0
 22 48  1  0  0  0
 23 28  1  0  0  0
 23 24  1  0  0  0
 24 25  2  0  0  0
 26 27  2  0  0  0
 26 49  1  0  0  0
 27 50  1  0  0  0
M  END
> <s_m_source_file>
/home/user-home/yujie/0_PBCNetv2/data/FEP/CDK2/inp_ligprep.csv

> <i_m_source_file_index>
16

> <i_lp_mmshare_version>
51139

> <i_f3d_flags>
0

> <s_epik_input>
W0NIM11bU0BdKD1PKWMxW2NIXVtjSF1jKFtjSF1bY0hdMSlbTkhdYyhuYyhjMjMpW25IXVtjSF1uMyluYzJPW0NIMl1bQ0hdNFtDSDJdW0NIMl1bQ0gyXVtDSDJdW0NIMl00

> <s_epik_cmdline>
J2VwaWtfcHl0aG9uJywgJy1waHQnLCAnMi4wJywgJy1waCcsICc3LjQnLCAnLXRuJywgJzgnLCAnLW1hJywgJzIwMCcsICctaW1hZScsICc8aW5maWxlLm1hZT4nLCAnLW9tYWUnLCAnPG91dGZpbGUubWFlPic=

> <r_lp_tautomer_probability>
0.990859

> <r_epik_Ionization_Penalty>
  0.0272

> <r_epik_Ionization_Penalty_Charging>
  0.0000

> <r_epik_Ionization_Penalty_Neutral>
  0.0272

> <r_epik_State_Penalty>
  0.0124

> <r_epik_Charging_Adjusted_Penalty>
0.0123967

> <i_epik_Tot_Q>
0

> <i_epik_Tot_abs_Q>
0

> <s_lp_Force_Field>
OPLS3e

> <r_lp_Energy>
23.3708

> <b_lp_Chiralities_Consistent>
1

> <s_lp_Variant>
CDK2_31-1

> <s_i_glide_gridfile>
CDK2-001-gridgen

> <i_i_glide_lignum>
31

> <i_i_glide_rotatable_bonds>
6

> <r_i_docking_score>
-9.31945308229384

> <r_i_glide_ligand_efficiency>
-0.345164928973846

> <r_i_glide_ligand_efficiency_sa>
-1.03549478578393

> <r_i_glide_ligand_efficiency_ln>
-2.16941503436608

> <r_i_glide_gscore>
-9.33184978229384

> <r_i_glide_lipo>
-1.89805330107979

> <r_i_glide_hbond>
-0.716108773673452

> <r_i_glide_metal>
-0

> <r_i_glide_rewards>
-3.18909262556181

> <r_i_glide_evdw>
-43.6002655029297

> <r_i_glide_ecoul>
-11.5086717605591

> <r_i_glide_erotb>
0.458197173395371

> <r_i_glide_esite>
-0.0804782161438117

> <r_i_glide_emodel>
-84.2798032966564

> <r_i_glide_energy>
-55.1089372634888

> <r_i_glide_einternal>
4.7067346572876

> <i_i_glide_confnum>
240

> <i_i_glide_posenum>
161

> <r_i_glide_eff_state_penalty>
0.0123967

$$$$
