CDK2_1oiy
                    3D
 Schrodinger Suite 2020-3.
 49 52  0  0  1  0            999 V2000
    2.8897   37.9587   47.3377 N   0  0  0  0  0  0
    2.7077   39.2462   47.0670 C   0  0  0  0  0  0
    1.6890   39.6798   46.5377 O   0  0  0  0  0  0
    3.8291   40.1454   47.4712 C   0  0  0  0  0  0
    4.6910   40.6144   46.4827 C   0  0  0  0  0  0
    5.8000   41.3634   46.8437 C   0  0  0  0  0  0
    6.0243   41.7118   48.1725 C   0  0  0  0  0  0
    7.1637   42.4808   48.4350 N   0  0  0  0  0  0
    7.4823   43.4787   49.3434 C   0  0  0  0  0  0
    6.4916   44.0598   50.0754 N   0  0  0  0  0  0
    6.8502   45.0883   50.8937 C   0  0  0  0  0  0
    5.9175   45.7636   51.6578 O   0  0  0  0  0  0
    4.5161   45.5282   51.4878 C   0  0  0  0  0  0
    3.9004   45.0400   52.8161 C   0  0  0  0  0  0
    4.1125   46.0445   53.9762 C   0  0  0  0  0  0
    3.5597   45.4859   55.3042 C   0  0  0  0  0  0
    2.0685   45.0979   55.1801 C   0  0  0  0  0  0
    1.7904   44.1876   53.9623 C   0  0  0  0  0  0
    2.3832   44.7773   52.6665 C   0  0  0  0  0  0
    8.1905   45.4846   51.0043 C   0  0  0  0  0  0
    8.8244   46.4414   51.7561 N   0  0  0  0  0  0
   10.0900   46.2860   51.4537 C   0  0  0  0  0  0
   10.3320   45.2808   50.5418 N   0  0  0  0  0  0
    9.1070   44.7646   50.2058 C   0  0  0  0  0  0
    8.8069   43.7890   49.3473 N   0  0  0  0  0  0
    5.1410   41.2810   49.1650 C   0  0  0  0  0  0
    4.0496   40.4811   48.8169 C   0  0  0  0  0  0
   11.2507   45.0302   50.1927 H   0  0  0  0  0  0
    2.1643   37.2971   47.1075 H   0  0  0  0  0  0
    3.8060   37.6505   47.6253 H   0  0  0  0  0  0
    4.5428   40.3593   45.4409 H   0  0  0  0  0  0
    6.4858   41.6808   46.0769 H   0  0  0  0  0  0
    7.9743   42.1647   47.9132 H   0  0  0  0  0  0
    4.0620   46.4765   51.1964 H   0  0  0  0  0  0
    4.2665   44.8335   50.6860 H   0  0  0  0  0  0
    4.3803   44.0976   53.0902 H   0  0  0  0  0  0
    5.1742   46.2724   54.0860 H   0  0  0  0  0  0
    3.6487   47.0033   53.7356 H   0  0  0  0  0  0
    4.1368   44.6089   55.6054 H   0  0  0  0  0  0
    3.6870   46.2196   56.1019 H   0  0  0  0  0  0
    1.7396   44.6082   56.0979 H   0  0  0  0  0  0
    1.4684   46.0054   55.0893 H   0  0  0  0  0  0
    2.2171   43.1978   54.1379 H   0  0  0  0  0  0
    0.7153   44.0399   53.8470 H   0  0  0  0  0  0
    1.8621   45.6940   52.3826 H   0  0  0  0  0  0
    2.2084   44.0901   51.8360 H   0  0  0  0  0  0
   10.9091   46.8703   51.8465 H   0  0  0  0  0  0
    5.3150   41.5389   50.1997 H   0  0  0  0  0  0
    3.3943   40.1211   49.5989 H   0  0  0  0  0  0
  1  2  1  0  0  0
  1 29  1  0  0  0
  1 30  1  0  0  0
  2  3  2  0  0  0
  2  4  1  0  0  0
  4 27  1  0  0  0
  4  5  2  0  0  0
  5  6  1  0  0  0
  5 31  1  0  0  0
  6  7  2  0  0  0
  6 32  1  0  0  0
  7  8  1  0  0  0
  7 26  1  0  0  0
  8  9  1  0  0  0
  8 33  1  0  0  0
  9 25  1  0  0  0
  9 10  2  0  0  0
 10 11  1  0  0  0
 11 12  1  0  0  0
 11 20  2  0  0  0
 12 13  1  0  0  0
 13 14  1  0  0  0
 13 34  1  0  0  0
 13 35  1  0  0  0
 14 19  1  0  0  0
 14 15  1  0  0  0
 14 36  1  0  0  0
 15 16  1  0  0  0
 15 37  1  0  0  0
 15 38  1  0  0  0
 16 17  1  0  0  0
 16 39  1  0  0  0
 16 40  1  0  0  0
 17 18  1  0  0  0
 17 41  1  0  0  0
 17 42  1  0  0  0
 18 19  1  0  0  0
 18 43  1  0  0  0
 18 44  1  0  0  0
 19 45  1  0  0  0
 19 46  1  0  0  0
 20 24  1  0  0  0
 20 21  1  0  0  0
 21 22  2  0  0  0
 22 23  1  0  0  0
 22 47  1  0  0  0
 23 28  1  0  0  0
 23 24  1  0  0  0
 24 25  2  0  0  0
 26 27  2  0  0  0
 26 48  1  0  0  0
 27 49  1  0  0  0
M  END
> <s_m_source_file>
/home/user-home/yujie/0_PBCNetv2/data/FEP/CDK2/inp_ligprep.csv

> <i_m_source_file_index>
9

> <i_lp_mmshare_version>
51139

> <i_f3d_flags>
0

> <s_epik_input>
W05IMl1DKD1PKWMxW2NIXVtjSF1jKFtjSF1bY0hdMSlbTkhdYyhuYyhjMjMpW25IXVtjSF1uMyluYzJPW0NIMl1bQ0hdNFtDSDJdW0NIMl1bQ0gyXVtDSDJdW0NIMl00

> <s_epik_cmdline>
J2VwaWtfcHl0aG9uJywgJy1waHQnLCAnMi4wJywgJy1waCcsICc3LjQnLCAnLXRuJywgJzgnLCAnLW1hJywgJzIwMCcsICctaW1hZScsICc8aW5maWxlLm1hZT4nLCAnLW9tYWUnLCAnPG91dGZpbGUubWFlPic=

> <r_lp_tautomer_probability>
0.990859

> <r_epik_Ionization_Penalty>
  0.0272

> <r_epik_Ionization_Penalty_Charging>
  0.0000

> <r_epik_Ionization_Penalty_Neutral>
  0.0272

> <r_epik_State_Penalty>
  0.0127

> <r_epik_Charging_Adjusted_Penalty>
0.0126715

> <i_epik_Tot_Q>
0

> <i_epik_Tot_abs_Q>
0

> <s_lp_Force_Field>
OPLS3e

> <r_lp_Energy>
26.5134

> <b_lp_Chiralities_Consistent>
1

> <s_lp_Variant>
CDK2_1oiy-1

> <s_i_glide_gridfile>
CDK2-001-gridgen

> <i_i_glide_lignum>
17

> <i_i_glide_rotatable_bonds>
6

> <r_i_docking_score>
-9.29009171044808

> <r_i_glide_ligand_efficiency>
-0.344077470757336

> <r_i_glide_ligand_efficiency_sa>
-1.03223241113799

> <r_i_glide_ligand_efficiency_ln>
-2.16258019106043

> <r_i_glide_gscore>
-9.30276321044808

> <r_i_glide_lipo>
-1.99214821365012

> <r_i_glide_hbond>
-0.819047885218006

> <r_i_glide_metal>
-0

> <r_i_glide_rewards>
-3.29162935725518

> <r_i_glide_evdw>
-45.2977104187012

> <r_i_glide_ecoul>
-8.90237808227539

> <r_i_glide_erotb>
0.50174630759587

> <r_i_glide_esite>
-0.101441828644279

> <r_i_glide_emodel>
-78.4192611496091

> <r_i_glide_energy>
-54.2000885009766

> <r_i_glide_einternal>
9.4179630279541

> <i_i_glide_confnum>
93

> <i_i_glide_posenum>
219

> <r_i_glide_eff_state_penalty>
0.0126715

$$$$
