CDK2_1h1s
                    3D
 Schrodinger Suite 2020-3.
 50 53  0  0  1  0            999 V2000
    3.1393   38.3031   45.2892 N   0  0  0  0  0  0
    2.5585   38.9130   46.8159 S   0  0  0  0  0  0
    2.5436   37.7766   47.7371 O   0  0  0  0  0  0
    1.3421   39.6808   46.5365 O   0  0  0  0  0  0
    3.7886   40.0817   47.4125 C   0  0  0  0  0  0
    3.8857   40.4588   48.7637 C   0  0  0  0  0  0
    4.9381   41.2778   49.1932 C   0  0  0  0  0  0
    5.9022   41.6999   48.2737 C   0  0  0  0  0  0
    7.0293   42.4735   48.6008 N   0  0  0  0  0  0
    7.2899   43.5165   49.4923 C   0  0  0  0  0  0
    6.2535   44.1116   50.1433 N   0  0  0  0  0  0
    6.5501   45.1791   50.9385 C   0  0  0  0  0  0
    5.5709   45.8821   51.6113 O   0  0  0  0  0  0
    4.1882   45.5500   51.4745 C   0  0  0  0  0  0
    3.6530   45.0097   52.8184 C   0  0  0  0  0  0
    3.8958   45.9870   53.9966 C   0  0  0  0  0  0
    3.4327   45.3732   55.3333 C   0  0  0  0  0  0
    1.9455   44.9636   55.2746 C   0  0  0  0  0  0
    1.6263   44.0765   54.0496 C   0  0  0  0  0  0
    2.1387   44.7064   52.7384 C   0  0  0  0  0  0
    7.8720   45.6082   51.1131 C   0  0  0  0  0  0
    8.4389   46.6033   51.8673 N   0  0  0  0  0  0
    9.7238   46.4624   51.6520 C   0  0  0  0  0  0
   10.0426   45.4330   50.7902 N   0  0  0  0  0  0
    8.8457   44.8811   50.3977 C   0  0  0  0  0  0
    8.6071   43.8652   49.5603 N   0  0  0  0  0  0
    5.7691   41.3425   46.9376 C   0  0  0  0  0  0
    4.7106   40.5716   46.4954 C   0  0  0  0  0  0
   10.9843   45.1881   50.5098 H   0  0  0  0  0  0
    3.5834   37.3841   45.3371 H   0  0  0  0  0  0
    2.5038   38.4336   44.4996 H   0  0  0  0  0  0
    3.1942   40.0753   49.4984 H   0  0  0  0  0  0
    5.0277   41.5439   50.2365 H   0  0  0  0  0  0
    7.8573   42.2011   48.0838 H   0  0  0  0  0  0
    3.9670   44.8542   50.6640 H   0  0  0  0  0  0
    3.6640   46.4706   51.2147 H   0  0  0  0  0  0
    4.1740   44.0762   53.0426 H   0  0  0  0  0  0
    3.3930   46.9373   53.8096 H   0  0  0  0  0  0
    4.9545   46.2440   54.0619 H   0  0  0  0  0  0
    3.5934   46.0796   56.1497 H   0  0  0  0  0  0
    4.0412   44.4969   55.5672 H   0  0  0  0  0  0
    1.3282   45.8627   55.2337 H   0  0  0  0  0  0
    1.6705   44.4493   56.1962 H   0  0  0  0  0  0
    0.5522   43.9033   53.9868 H   0  0  0  0  0  0
    2.0860   43.0952   54.1799 H   0  0  0  0  0  0
    1.9411   44.0303   51.9038 H   0  0  0  0  0  0
    1.5804   45.6147   52.4997 H   0  0  0  0  0  0
   10.5013   47.0776   52.0800 H   0  0  0  0  0  0
    6.4899   41.6625   46.2186 H   0  0  0  0  0  0
    4.6609   40.3131   45.4481 H   0  0  0  0  0  0
  1  2  1  0  0  0
  1 30  1  0  0  0
  1 31  1  0  0  0
  2  3  2  0  0  0
  2  4  2  0  0  0
  2  5  1  0  0  0
  5 28  1  0  0  0
  5  6  2  0  0  0
  6  7  1  0  0  0
  6 32  1  0  0  0
  7  8  2  0  0  0
  7 33  1  0  0  0
  8  9  1  0  0  0
  8 27  1  0  0  0
  9 10  1  0  0  0
  9 34  1  0  0  0
 10 26  1  0  0  0
 10 11  2  0  0  0
 11 12  1  0  0  0
 12 13  1  0  0  0
 12 21  2  0  0  0
 13 14  1  0  0  0
 14 15  1  0  0  0
 14 35  1  0  0  0
 14 36  1  0  0  0
 15 20  1  0  0  0
 15 16  1  0  0  0
 15 37  1  0  0  0
 16 17  1  0  0  0
 16 38  1  0  0  0
 16 39  1  0  0  0
 17 18  1  0  0  0
 17 40  1  0  0  0
 17 41  1  0  0  0
 18 19  1  0  0  0
 18 42  1  0  0  0
 18 43  1  0  0  0
 19 20  1  0  0  0
 19 44  1  0  0  0
 19 45  1  0  0  0
 20 46  1  0  0  0
 20 47  1  0  0  0
 21 25  1  0  0  0
 21 22  1  0  0  0
 22 23  2  0  0  0
 23 24  1  0  0  0
 23 48  1  0  0  0
 24 29  1  0  0  0
 24 25  1  0  0  0
 25 26  2  0  0  0
 27 28  2  0  0  0
 27 49  1  0  0  0
 28 50  1  0  0  0
M  END
> <s_m_source_file>
/home/user-home/yujie/0_PBCNetv2/data/FEP/CDK2/inp_ligprep.csv

> <i_m_source_file_index>
14

> <i_lp_mmshare_version>
51139

> <i_f3d_flags>
0

> <s_epik_input>
W05IMl1TKD1PKSg9TyljMVtjSF1bY0hdYyhbY0hdW2NIXTEpW05IXWMobmMoYzIzKVtuSF1bY0hdbjMpbmMyT1tDSDJdW0NIXTRbQ0gyXVtDSDJdW0NIMl1bQ0gyXVtDSDJdNA==

> <s_epik_cmdline>
J2VwaWtfcHl0aG9uJywgJy1waHQnLCAnMi4wJywgJy1waCcsICc3LjQnLCAnLXRuJywgJzgnLCAnLW1hJywgJzIwMCcsICctaW1hZScsICc8aW5maWxlLm1hZT4nLCAnLW9tYWUnLCAnPG91dGZpbGUubWFlPic=

> <r_lp_tautomer_probability>
0.990859

> <r_epik_Ionization_Penalty>
  0.0278

> <r_epik_Ionization_Penalty_Charging>
  0.0000

> <r_epik_Ionization_Penalty_Neutral>
  0.0278

> <r_epik_State_Penalty>
  0.0125

> <r_epik_Charging_Adjusted_Penalty>
0.0125334

> <i_epik_Tot_Q>
0

> <i_epik_Tot_abs_Q>
0

> <s_lp_Force_Field>
OPLS3e

> <r_lp_Energy>
19.9214

> <b_lp_Chiralities_Consistent>
1

> <s_lp_Variant>
CDK2_1h1s-1

> <s_i_glide_gridfile>
CDK2-001-gridgen

> <i_i_glide_lignum>
27

> <i_i_glide_rotatable_bonds>
6

> <r_i_docking_score>
-7.7154604429457

> <r_i_glide_ligand_efficiency>
-0.275552158676632

> <r_i_glide_ligand_efficiency_sa>
-0.8367386452846

> <r_i_glide_ligand_efficiency_ln>
-1.78095480599407

> <r_i_glide_gscore>
-7.7279938429457

> <r_i_glide_lipo>
-1.98342337821776

> <r_i_glide_hbond>
-0.479894405266562

> <r_i_glide_metal>
-0

> <r_i_glide_rewards>
-1.99281335797615

> <r_i_glide_evdw>
-45.4474296569824

> <r_i_glide_ecoul>
-9.77165222167969

> <r_i_glide_erotb>
0.605744072148332

> <r_i_glide_esite>
-0.139487457532485

> <r_i_glide_emodel>
-74.6974113518874

> <r_i_glide_energy>
-55.2190818786621

> <r_i_glide_einternal>
5.92647123336792

> <i_i_glide_confnum>
137

> <i_i_glide_posenum>
353

> <r_i_glide_eff_state_penalty>
0.0125334

$$$$
