CDK2_1h1q
                    3D
 Schrodinger Suite 2020-3.
 45 48  0  0  1  0            999 V2000
    3.6910   40.3810   48.4271 C   0  0  0  0  0  0
    4.0601   40.8807   49.6738 C   0  0  0  0  0  0
    5.2612   41.5695   49.8104 C   0  0  0  0  0  0
    6.0877   41.7729   48.7005 C   0  0  0  0  0  0
    7.2899   42.4821   48.8067 N   0  0  0  0  0  0
    7.6090   43.6007   49.5814 C   0  0  0  0  0  0
    6.5809   44.2950   50.1377 N   0  0  0  0  0  0
    6.8904   45.3277   50.9470 C   0  0  0  0  0  0
    5.8322   46.0761   51.4015 O   0  0  0  0  0  0
    5.6535   46.1667   52.8117 C   0  0  0  0  0  0
    5.1894   44.8185   53.4084 C   0  0  0  0  0  0
    5.0127   44.8745   54.9415 C   0  0  0  0  0  0
    3.7789   45.7047   55.3621 C   0  0  0  0  0  0
    2.4922   45.2050   54.6744 C   0  0  0  0  0  0
    2.6503   45.0913   53.1437 C   0  0  0  0  0  0
    3.8949   44.2584   52.7654 C   0  0  0  0  0  0
    8.2261   45.6873   51.1893 C   0  0  0  0  0  0
    8.8104   46.6931   51.9129 N   0  0  0  0  0  0
   10.0904   46.4959   51.7349 C   0  0  0  0  0  0
   10.3958   45.4179   50.9350 N   0  0  0  0  0  0
    9.1931   44.8835   50.5379 C   0  0  0  0  0  0
    8.9422   43.8554   49.7201 N   0  0  0  0  0  0
    5.7074   41.2766   47.4533 C   0  0  0  0  0  0
    4.5074   40.5762   47.3154 C   0  0  0  0  0  0
   11.3377   45.1440   50.6705 H   0  0  0  0  0  0
    2.7824   39.8067   48.3205 H   0  0  0  0  0  0
    3.4292   40.7152   50.5372 H   0  0  0  0  0  0
    5.5457   41.9457   50.7826 H   0  0  0  0  0  0
    8.0854   42.0526   48.3405 H   0  0  0  0  0  0
    4.9103   46.9432   52.9931 H   0  0  0  0  0  0
    6.5654   46.5120   53.3022 H   0  0  0  0  0  0
    5.9720   44.0852   53.2211 H   0  0  0  0  0  0
    5.9114   45.2806   55.4047 H   0  0  0  0  0  0
    4.9083   43.8624   55.3366 H   0  0  0  0  0  0
    3.9348   46.7592   55.1305 H   0  0  0  0  0  0
    3.6584   45.6596   56.4463 H   0  0  0  0  0  0
    1.6557   45.8629   54.9144 H   0  0  0  0  0  0
    2.2319   44.2253   55.0794 H   0  0  0  0  0  0
    2.7202   46.0878   52.7056 H   0  0  0  0  0  0
    1.7584   44.6351   52.7114 H   0  0  0  0  0  0
    3.7457   43.2264   53.0861 H   0  0  0  0  0  0
    3.9923   44.2255   51.6796 H   0  0  0  0  0  0
   10.8877   47.1073   52.1375 H   0  0  0  0  0  0
    6.3421   41.4232   46.5917 H   0  0  0  0  0  0
    4.2248   40.1782   46.3525 H   0  0  0  0  0  0
  1 24  1  0  0  0
  1  2  2  0  0  0
  1 26  1  0  0  0
  2  3  1  0  0  0
  2 27  1  0  0  0
  3  4  2  0  0  0
  3 28  1  0  0  0
  4  5  1  0  0  0
  4 23  1  0  0  0
  5  6  1  0  0  0
  5 29  1  0  0  0
  6 22  1  0  0  0
  6  7  2  0  0  0
  7  8  1  0  0  0
  8  9  1  0  0  0
  8 17  2  0  0  0
  9 10  1  0  0  0
 10 11  1  0  0  0
 10 30  1  0  0  0
 10 31  1  0  0  0
 11 16  1  0  0  0
 11 12  1  0  0  0
 11 32  1  0  0  0
 12 13  1  0  0  0
 12 33  1  0  0  0
 12 34  1  0  0  0
 13 14  1  0  0  0
 13 35  1  0  0  0
 13 36  1  0  0  0
 14 15  1  0  0  0
 14 37  1  0  0  0
 14 38  1  0  0  0
 15 16  1  0  0  0
 15 39  1  0  0  0
 15 40  1  0  0  0
 16 41  1  0  0  0
 16 42  1  0  0  0
 17 21  1  0  0  0
 17 18  1  0  0  0
 18 19  2  0  0  0
 19 20  1  0  0  0
 19 43  1  0  0  0
 20 25  1  0  0  0
 20 21  1  0  0  0
 21 22  2  0  0  0
 23 24  2  0  0  0
 23 44  1  0  0  0
 24 45  1  0  0  0
M  END
> <s_m_source_file>
/home/user-home/yujie/0_PBCNetv2/data/FEP/CDK2/inp_ligprep.csv

> <i_m_source_file_index>
12

> <i_lp_mmshare_version>
51139

> <i_f3d_flags>
0

> <s_epik_input>
W2NIXTFbY0hdW2NIXVtjSF1bY0hdYzFbTkhdYyhuYyhjMjMpW25IXVtjSF1uMyluYzJPW0NIMl1bQ0hdNFtDSDJdW0NIMl1bQ0gyXVtDSDJdW0NIMl00

> <s_epik_cmdline>
J2VwaWtfcHl0aG9uJywgJy1waHQnLCAnMi4wJywgJy1waCcsICc3LjQnLCAnLXRuJywgJzgnLCAnLW1hJywgJzIwMCcsICctaW1hZScsICc8aW5maWxlLm1hZT4nLCAnLW9tYWUnLCAnPG91dGZpbGUubWFlPic=

> <r_lp_tautomer_probability>
0.990859

> <r_epik_Ionization_Penalty>
  0.0272

> <r_epik_Ionization_Penalty_Charging>
  0.0000

> <r_epik_Ionization_Penalty_Neutral>
  0.0272

> <r_epik_State_Penalty>
  0.0125

> <r_epik_Charging_Adjusted_Penalty>
0.0124756

> <i_epik_Tot_Q>
0

> <i_epik_Tot_abs_Q>
0

> <s_lp_Force_Field>
OPLS3e

> <r_lp_Energy>
26.635

> <b_lp_Chiralities_Consistent>
1

> <s_lp_Variant>
CDK2_1h1q-1

> <s_i_glide_gridfile>
CDK2-001-gridgen

> <i_i_glide_lignum>
23

> <i_i_glide_rotatable_bonds>
5

> <r_i_docking_score>
-8.98616704578491

> <r_i_glide_ligand_efficiency>
-0.374423626907705

> <r_i_glide_ligand_efficiency_sa>
-1.08002462889703

> <r_i_glide_ligand_efficiency_ln>
-2.15080212239308

> <r_i_glide_gscore>
-8.99864264578491

> <r_i_glide_lipo>
-2.09187427843142

> <r_i_glide_hbond>
-0.659322480346188

> <r_i_glide_metal>
-0

> <r_i_glide_rewards>
-3.58854566401348

> <r_i_glide_evdw>
-44.5158081054688

> <r_i_glide_ecoul>
-7.06253242492676

> <r_i_glide_erotb>
0.626270046018621

> <r_i_glide_esite>
0

> <r_i_glide_emodel>
-74.4181712072188

> <r_i_glide_energy>
-51.5783405303955

> <r_i_glide_einternal>
8.99958229064941

> <i_i_glide_confnum>
91

> <i_i_glide_posenum>
254

> <r_i_glide_eff_state_penalty>
0.0124756

$$$$
