lig0
                    3D
 Schrodinger Suite 2024-1.
 70 73  0  0  1  0            999 V2000
  -18.8059  -18.0383    1.7089 C   0  0  0  0  0  0
  -18.9337  -16.8558    0.9244 O   0  0  0  0  0  0
  -19.6873  -15.7980    1.4027 C   0  0  0  0  0  0
  -20.3576  -15.8311    2.6348 C   0  0  0  0  0  0
  -21.1203  -14.7336    3.0554 C   0  0  0  0  0  0
  -21.8514  -14.7713    4.2224 N   0  3  0  0  0  0
  -22.5806  -13.7154    4.6324 C   0  0  0  0  0  0
  -23.5271  -13.7515    5.7121 N   0  0  0  0  0  0
  -23.3536  -14.7963    6.7387 C   0  0  0  0  0  0
  -24.5459  -12.6761    5.9671 C   0  0  0  0  0  0
  -25.1702  -11.7927    4.7979 C   0  0  0  0  0  0
  -25.8537  -12.5832    3.6444 C   0  0  0  0  0  0
  -27.3695  -12.8433    3.8532 C   0  0  0  0  0  0
  -28.1554  -11.5608    4.1557 C   0  0  0  0  0  0
  -27.5610  -10.8753    5.3944 C   0  0  0  0  0  0
  -26.0697  -10.5682    5.1804 C   0  0  0  0  0  0
  -22.5221  -12.5494    3.9868 N   0  0  0  0  0  0
  -21.8615  -12.4328    2.8330 C   0  0  0  0  0  0
  -21.9278  -11.1659    2.2240 N   0  0  0  0  0  0
  -22.6671   -9.9951    2.7242 C   0  0  2  0  0  0
  -22.5754   -8.8568    1.6973 C   0  0  0  0  0  0
  -23.3198   -7.5962    2.1739 C   0  0  0  0  0  0
  -22.7271   -7.1574    3.5337 N   0  3  1  0  0  0
  -23.4068   -5.8724    4.0535 C   0  0  0  0  0  0
  -22.8322   -8.2620    4.6060 C   0  0  0  0  0  0
  -22.1271   -9.5248    4.0995 C   0  0  0  0  0  0
  -21.1678  -13.5434    2.2739 C   0  0  0  0  0  0
  -20.5175  -13.5497    1.0244 C   0  0  0  0  0  0
  -19.7830  -14.6588    0.5895 C   0  0  0  0  0  0
  -19.1267  -14.6674   -0.6260 O   0  0  0  0  0  0
  -19.2568  -13.5383   -1.4947 C   0  0  0  0  0  0
  -18.1739  -18.7533    1.1802 H   0  0  0  0  0  0
  -18.3348  -17.8333    2.6719 H   0  0  0  0  0  0
  -19.7707  -18.5168    1.8826 H   0  0  0  0  0  0
  -20.3087  -16.6789    3.2869 H   0  0  0  0  0  0
  -22.3031  -15.0681    6.8394 H   0  0  0  0  0  0
  -23.7079  -14.4236    7.7024 H   0  0  0  0  0  0
  -23.9326  -15.6728    6.4567 H   0  0  0  0  0  0
  -23.9361  -12.0197    6.6014 H   0  0  0  0  0  0
  -25.3248  -13.1227    6.5905 H   0  0  0  0  0  0
  -24.3693  -11.2256    4.3695 H   0  0  0  0  0  0
  -25.2839  -13.4683    3.3638 H   0  0  0  0  0  0
  -25.7757  -11.9639    2.7468 H   0  0  0  0  0  0
  -27.5270  -13.4759    4.7246 H   0  0  0  0  0  0
  -27.7949  -13.3633    2.9898 H   0  0  0  0  0  0
  -29.2093  -11.7909    4.3275 H   0  0  0  0  0  0
  -28.1230  -10.8855    3.2960 H   0  0  0  0  0  0
  -27.6823  -11.5186    6.2684 H   0  0  0  0  0  0
  -28.1021   -9.9530    5.6126 H   0  0  0  0  0  0
  -26.0378   -9.8696    4.3414 H   0  0  0  0  0  0
  -25.6706   -9.9633    5.9928 H   0  0  0  0  0  0
  -21.5285  -11.0663    1.2851 H   0  0  0  0  0  0
  -23.7202  -10.2670    2.7449 H   0  0  0  0  0  0
  -21.5377   -8.6056    1.4923 H   0  0  0  0  0  0
  -22.9916   -9.1818    0.7418 H   0  0  0  0  0  0
  -24.3846   -7.7789    2.3254 H   0  0  0  0  0  0
  -23.1917   -6.7627    1.4814 H   0  0  0  0  0  0
  -24.4625   -6.0888    4.2313 H   0  0  0  0  0  0
  -22.9004   -5.5834    4.9758 H   0  0  0  0  0  0
  -23.2755   -5.1045    3.2909 H   0  0  0  0  0  0
  -23.8887   -8.4304    4.8187 H   0  0  0  0  0  0
  -22.3332   -7.8754    5.4959 H   0  0  0  0  0  0
  -22.2590  -10.2795    4.8710 H   0  0  0  0  0  0
  -21.0488   -9.3460    4.0486 H   0  0  0  0  0  0
  -20.5982  -12.6785    0.4062 H   0  0  0  0  0  0
  -18.7281  -13.7144   -2.4279 H   0  0  0  0  0  0
  -20.3006  -13.3555   -1.7554 H   0  0  0  0  0  0
  -18.8362  -12.6378   -1.0403 H   0  0  0  0  0  0
  -21.7339   -6.9776    3.4056 H   0  0  0  0  0  0
  -21.8467  -15.6248    4.7710 H   0  0  0  0  0  0
  1  2  1  0  0  0
  1 32  1  0  0  0
  1 33  1  0  0  0
  1 34  1  0  0  0
  2  3  1  0  0  0
  3 29  1  0  0  0
  3  4  2  0  0  0
  4  5  1  0  0  0
  4 35  1  0  0  0
  5 27  2  0  0  0
  5  6  1  0  0  0
  6  7  2  0  0  0
  6 70  1  0  0  0
  7  8  1  0  0  0
  7 17  1  0  0  0
  8  9  1  0  0  0
  8 10  1  0  0  0
  9 36  1  0  0  0
  9 37  1  0  0  0
  9 38  1  0  0  0
 10 11  1  0  0  0
 10 39  1  0  0  0
 10 40  1  0  0  0
 11 16  1  0  0  0
 11 12  1  0  0  0
 11 41  1  0  0  0
 12 13  1  0  0  0
 12 42  1  0  0  0
 12 43  1  0  0  0
 13 14  1  0  0  0
 13 44  1  0  0  0
 13 45  1  0  0  0
 14 15  1  0  0  0
 14 46  1  0  0  0
 14 47  1  0  0  0
 15 16  1  0  0  0
 15 48  1  0  0  0
 15 49  1  0  0  0
 16 50  1  0  0  0
 16 51  1  0  0  0
 17 18  2  0  0  0
 18 19  1  0  0  0
 18 27  1  0  0  0
 19 20  1  0  0  0
 19 52  1  0  0  0
 20 26  1  0  0  0
 20 21  1  0  0  0
 20 53  1  0  0  0
 21 22  1  0  0  0
 21 54  1  0  0  0
 21 55  1  0  0  0
 22 23  1  0  0  0
 22 56  1  0  0  0
 22 57  1  0  0  0
 23 24  1  0  0  0
 23 25  1  0  0  0
 23 69  1  0  0  0
 24 58  1  0  0  0
 24 59  1  0  0  0
 24 60  1  0  0  0
 25 26  1  0  0  0
 25 61  1  0  0  0
 25 62  1  0  0  0
 26 63  1  0  0  0
 26 64  1  0  0  0
 27 28  1  0  0  0
 28 29  2  0  0  0
 28 65  1  0  0  0
 29 30  1  0  0  0
 30 31  1  0  0  0
 31 66  1  0  0  0
 31 67  1  0  0  0
 31 68  1  0  0  0
M  CHG  2   6   1  23   1
M  END
> <Tot Q>
2

> <Source File Index>
369

> <i_f3d_flags>
0

> <subgroup collapsed>
0

> <Ionization Penalty>
0.0096

> <State Penalty>
0.006

> <docking score>
-4.90101

> <glide emodel>
-55.7691

> <glide gscore>
-4.90702

> <tautomer probability>
0.993508

> <Source File>
Sries47256_dock_SP_confgen_100_lib.maegz

> <Source Path>
C:\Users\yujie\Desktop\two_s\data

> <entry id>
42192

> <subgroup title>
a

> <subgroupid>
Sries47256_dock_SP_confgen_100_lib

$$$$
