lig21
                    3D
 Schrodinger Suite 2020-3.
 67 70  0  0  1  0            999 V2000
  -18.4165  -17.8876    0.9916 C   0  0  0  0  0  0
  -18.6746  -16.6448    0.3447 O   0  0  0  0  0  0
  -19.5027  -15.7153    0.9487 C   0  0  0  0  0  0
  -20.0924  -15.9138    2.2062 C   0  0  0  0  0  0
  -20.9252  -14.9173    2.7432 C   0  0  0  0  0  0
  -21.5162  -15.0784    3.9673 N   0  3  0  0  0  0
  -22.3357  -14.1522    4.5043 C   0  0  0  0  0  0
  -22.9485  -14.3310    5.7892 N   0  0  0  0  0  0
  -23.6509  -13.2103    6.4694 C   0  0  0  0  0  0
  -22.7272  -15.6177    6.4807 C   0  0  0  0  0  0
  -21.4480  -15.4785    7.3207 C   0  0  0  0  0  0
  -21.2120  -16.6236    8.3243 C   0  0  0  0  0  0
  -22.4833  -16.8383    9.1237 C   0  0  0  0  0  0
  -23.6625  -17.2312    8.2314 C   0  0  0  0  0  0
  -23.9550  -16.0548    7.2823 C   0  0  0  0  0  0
  -22.6251  -12.9994    3.8659 N   0  0  0  0  0  0
  -22.0515  -12.7490    2.6707 C   0  0  0  0  0  0
  -22.3272  -11.5021    2.0679 N   0  0  0  0  0  0
  -23.2499  -10.4621    2.5423 C   0  0  2  0  0  0
  -22.7828   -9.8522    3.8867 C   0  0  0  0  0  0
  -23.7949   -8.8305    4.4359 C   0  0  0  0  0  0
  -25.1829   -9.5150    4.5422 N   0  3  1  0  0  0
  -26.2214   -8.5707    5.1869 C   0  0  0  0  0  0
  -25.6857   -9.9705    3.1528 C   0  0  0  0  0  0
  -24.6982  -11.0071    2.6007 C   0  0  0  0  0  0
  -21.1963  -13.7081    2.0429 C   0  0  0  0  0  0
  -20.6044  -13.5558    0.7734 C   0  0  0  0  0  0
  -19.7521  -14.5284    0.2417 C   0  0  0  0  0  0
  -19.1272  -14.3632   -0.9760 O   0  0  0  0  0  0
  -19.3046  -13.1596   -1.7150 C   0  0  0  0  0  0
  -17.7491  -18.4848    0.3700 H   0  0  0  0  0  0
  -17.9293  -17.7486    1.9572 H   0  0  0  0  0  0
  -19.3333  -18.4618    1.1346 H   0  0  0  0  0  0
  -19.9273  -16.8108    2.7846 H   0  0  0  0  0  0
  -24.7271  -13.3416    6.3617 H   0  0  0  0  0  0
  -23.4001  -13.2123    7.5306 H   0  0  0  0  0  0
  -23.3641  -12.2389    6.0726 H   0  0  0  0  0  0
  -22.5831  -16.3968    5.7328 H   0  0  0  0  0  0
  -20.6295  -15.3875    6.6202 H   0  0  0  0  0  0
  -21.4692  -14.5476    7.8782 H   0  0  0  0  0  0
  -20.9228  -17.5469    7.8241 H   0  0  0  0  0  0
  -20.4018  -16.3824    9.0133 H   0  0  0  0  0  0
  -22.3271  -17.4784    9.9779 H   0  0  0  0  0  0
  -22.7272  -15.8784    9.5454 H   0  0  0  0  0  0
  -23.4264  -18.1340    7.6661 H   0  0  0  0  0  0
  -24.5382  -17.4665    8.8389 H   0  0  0  0  0  0
  -24.3271  -15.2023    7.8241 H   0  0  0  0  0  0
  -24.7666  -16.2784    6.6242 H   0  0  0  0  0  0
  -21.8215  -11.2751    1.2118 H   0  0  0  0  0  0
  -23.2042   -9.6773    1.7835 H   0  0  0  0  0  0
  -22.5986  -10.6065    4.6486 H   0  0  0  0  0  0
  -21.8226   -9.3530    3.7428 H   0  0  0  0  0  0
  -23.9030   -7.9670    3.7767 H   0  0  0  0  0  0
  -23.5012   -8.4759    5.4240 H   0  0  0  0  0  0
  -26.2352   -7.6301    4.6335 H   0  0  0  0  0  0
  -27.1926   -9.0676    5.1588 H   0  0  0  0  0  0
  -25.9272   -8.4199    6.2241 H   0  0  0  0  0  0
  -25.7531   -9.0830    2.5198 H   0  0  0  0  0  0
  -26.6824  -10.3970    3.2819 H   0  0  0  0  0  0
  -25.0149  -11.3018    1.5993 H   0  0  0  0  0  0
  -24.7749  -11.9050    3.2103 H   0  0  0  0  0  0
  -20.8337  -12.6784    0.2052 H   0  0  0  0  0  0
  -18.6407  -13.1692   -2.5761 H   0  0  0  0  0  0
  -19.0512  -12.2785   -1.1248 H   0  0  0  0  0  0
  -20.3287  -13.0686   -2.0800 H   0  0  0  0  0  0
  -25.0920  -10.3323    5.1364 H   0  0  0  0  0  0
  -21.3043  -15.9237    4.4969 H   0  0  0  0  0  0
  1  2  1  0  0  0
  1 31  1  0  0  0
  1 32  1  0  0  0
  1 33  1  0  0  0
  2  3  1  0  0  0
  3 28  1  0  0  0
  3  4  2  0  0  0
  4  5  1  0  0  0
  4 34  1  0  0  0
  5 26  2  0  0  0
  5  6  1  0  0  0
  6  7  2  0  0  0
  6 67  1  0  0  0
  7  8  1  0  0  0
  7 16  1  0  0  0
  8  9  1  0  0  0
  8 10  1  0  0  0
  9 35  1  0  0  0
  9 36  1  0  0  0
  9 37  1  0  0  0
 10 15  1  0  0  0
 10 11  1  0  0  0
 10 38  1  0  0  0
 11 12  1  0  0  0
 11 39  1  0  0  0
 11 40  1  0  0  0
 12 13  1  0  0  0
 12 41  1  0  0  0
 12 42  1  0  0  0
 13 14  1  0  0  0
 13 43  1  0  0  0
 13 44  1  0  0  0
 14 15  1  0  0  0
 14 45  1  0  0  0
 14 46  1  0  0  0
 15 47  1  0  0  0
 15 48  1  0  0  0
 16 17  2  0  0  0
 17 18  1  0  0  0
 17 26  1  0  0  0
 18 19  1  0  0  0
 18 49  1  0  0  0
 19 25  1  0  0  0
 19 20  1  0  0  0
 19 50  1  0  0  0
 20 21  1  0  0  0
 20 51  1  0  0  0
 20 52  1  0  0  0
 21 22  1  0  0  0
 21 53  1  0  0  0
 21 54  1  0  0  0
 22 23  1  0  0  0
 22 24  1  0  0  0
 22 66  1  0  0  0
 23 55  1  0  0  0
 23 56  1  0  0  0
 23 57  1  0  0  0
 24 25  1  0  0  0
 24 58  1  0  0  0
 24 59  1  0  0  0
 25 60  1  0  0  0
 25 61  1  0  0  0
 26 27  1  0  0  0
 27 28  2  0  0  0
 27 62  1  0  0  0
 28 29  1  0  0  0
 29 30  1  0  0  0
 30 63  1  0  0  0
 30 64  1  0  0  0
 30 65  1  0  0  0
M  CHG  2   6   1  22   1
M  END
> <s_m_source_file>
/home/user-home/yujie/0_PBCNetv2/data/0_0_high_sim/0_noncov/Sries47256/ligprep_input.csv

> <i_m_source_file_index>
22

> <i_lp_mmshare_version>
51139

> <i_f3d_flags>
0

> <s_epik_input>
W0NIMl0xW0NIMl1OKFtDSDNdKVtDSDJdW0NIMl1bQ0hdMVtOSF1jKGMoYzIzKVtjSF1jKE9bQ0gzXSljKFtjSF0yKU9bQ0gzXSluYyhuMylOKFtDSDNdKVtDSF00W0NIMl1bQ0gyXVtDSDJdW0NIMl1bQ0gyXTQ=

> <s_epik_cmdline>
J2VwaWtfcHl0aG9uJywgJy1waHQnLCAnMi4wJywgJy1waCcsICc3LjQnLCAnLXRuJywgJzgnLCAnLW1hJywgJzIwMCcsICctaW1hZScsICc8aW5maWxlLm1hZT4nLCAnLW9tYWUnLCAnPG91dGZpbGUubWFlPic=

> <r_lp_tautomer_probability>
1

> <r_epik_Ionization_Penalty>
  0.0063

> <r_epik_Ionization_Penalty_Charging>
  0.0063

> <r_epik_Ionization_Penalty_Neutral>
  0.0000

> <r_epik_State_Penalty>
 -0.0000

> <r_epik_Charging_Adjusted_Penalty>
0.00629328

> <i_epik_Tot_Q>
2

> <i_epik_Tot_abs_Q>
2

> <s_lp_Force_Field>
OPLS3e

> <r_lp_Energy>
62.5061

> <b_lp_Chiralities_Consistent>
1

> <s_lp_Variant>
lig21-1

> <s_i_glide_gridfile>
Sries47258-001-gridgen

> <i_i_glide_lignum>
33

> <i_i_glide_rotatable_bonds>
6

> <r_i_docking_score>
-5.18131548956742

> <r_i_glide_ligand_efficiency>
-0.172710516318914

> <r_i_glide_ligand_efficiency_sa>
-0.536651729817785

> <r_i_glide_ligand_efficiency_ln>
-1.17725133418366

> <r_i_glide_gscore>
-5.18131548956742

> <r_i_glide_lipo>
-1.3726289138511

> <r_i_glide_hbond>
-0.36

> <r_i_glide_metal>
-0

> <r_i_glide_rewards>
-0.575618160840111

> <r_i_glide_evdw>
-31.8608226776123

> <r_i_glide_ecoul>
-10.247974395752

> <r_i_glide_erotb>
0.457393653332036

> <r_i_glide_esite>
-0.200224774964835

> <r_i_glide_emodel>
-62.8686944121046

> <r_i_glide_energy>
-42.1087970733643

> <r_i_glide_einternal>
1.61912846565247

> <i_i_glide_confnum>
16

> <i_i_glide_posenum>
241

> <r_i_glide_eff_state_penalty>
-0

$$$$
