lig1
                    3D
 Schrodinger Suite 2024-1.
 64 67  0  0  1  0            999 V2000
  -18.6656  -13.4757   -1.5615 C   0  0  0  0  0  0
  -19.1283  -14.6671   -0.9215 O   0  0  0  0  0  0
  -19.8084  -14.5594    0.2644 C   0  0  0  0  0  0
  -20.6556  -13.4788    0.5032 C   0  0  0  0  0  0
  -21.2035  -13.3137    1.7619 C   0  0  0  0  0  0
  -21.9554  -12.2040    2.0246 N   0  3  0  0  0  0
  -22.5438  -11.9901    3.2072 C   0  0  0  0  0  0
  -23.4618  -10.8972    3.3843 N   0  0  0  0  0  0
  -23.3333   -9.6935    2.5349 C   0  0  0  0  0  0
  -24.4013  -10.9137    4.5287 C   0  0  0  0  0  0
  -25.6363  -10.0328    4.3816 C   0  0  0  0  0  0
  -25.5664   -8.6707    4.6754 C   0  0  0  0  0  0
  -26.7003   -7.8709    4.5561 C   0  0  0  0  0  0
  -27.9025   -8.4372    4.1341 C   0  0  0  0  0  0
  -27.9793   -9.7960    3.8330 C   0  0  0  0  0  0
  -26.8448  -10.5954    3.9584 C   0  0  0  0  0  0
  -22.3547  -12.8377    4.2461 N   0  0  0  0  0  0
  -21.5412  -13.9135    4.0631 C   0  0  0  0  0  0
  -21.2194  -14.6820    5.1857 N   0  0  0  0  0  0
  -22.0570  -14.6708    6.3689 C   0  0  2  0  0  0
  -21.2476  -15.3406    7.4933 C   0  0  0  0  0  0
  -22.1097  -15.8457    8.6248 C   0  0  0  0  0  0
  -23.1178  -16.8073    7.9797 N   0  3  1  0  0  0
  -23.8449  -17.6602    9.0250 C   0  0  0  0  0  0
  -24.1104  -15.9382    7.1880 C   0  0  0  0  0  0
  -23.3309  -15.4479    5.9728 C   0  0  0  0  0  0
  -20.9839  -14.2525    2.8008 C   0  0  0  0  0  0
  -20.2047  -15.4089    2.5039 C   0  0  0  0  0  0
  -19.6219  -15.5604    1.2322 C   0  0  0  0  0  0
  -18.8289  -16.6390    0.8765 O   0  0  0  0  0  0
  -18.5720  -17.6785    1.8176 C   0  0  0  0  0  0
  -18.9583  -13.4818   -2.6071 H   0  0  0  0  0  0
  -18.9741  -12.5223   -1.1345 H   0  0  0  0  0  0
  -17.5784  -13.4772   -1.5041 H   0  0  0  0  0  0
  -20.8598  -12.7281   -0.2452 H   0  0  0  0  0  0
  -22.5170   -9.7712    1.8145 H   0  0  0  0  0  0
  -24.2734   -9.5348    2.0040 H   0  0  0  0  0  0
  -23.1343   -8.8375    3.1829 H   0  0  0  0  0  0
  -23.8262  -10.6610    5.4178 H   0  0  0  0  0  0
  -24.7211  -11.9443    4.6894 H   0  0  0  0  0  0
  -24.6391   -8.2324    5.0196 H   0  0  0  0  0  0
  -26.6457   -6.8201    4.7991 H   0  0  0  0  0  0
  -28.7853   -7.8199    4.0429 H   0  0  0  0  0  0
  -28.9167  -10.2274    3.5093 H   0  0  0  0  0  0
  -26.9066  -11.6485    3.7275 H   0  0  0  0  0  0
  -20.7442  -15.5647    5.0094 H   0  0  0  0  0  0
  -22.3073  -13.6440    6.6487 H   0  0  0  0  0  0
  -20.7271  -16.2113    7.1202 H   0  0  0  0  0  0
  -20.4870  -14.6762    7.8904 H   0  0  0  0  0  0
  -22.6836  -15.0145    9.0243 H   0  0  0  0  0  0
  -21.5406  -16.3529    9.4051 H   0  0  0  0  0  0
  -24.6682  -17.0805    9.4136 H   0  0  0  0  0  0
  -24.2050  -18.5605    8.5266 H   0  0  0  0  0  0
  -23.1301  -17.8769    9.8166 H   0  0  0  0  0  0
  -24.3971  -15.0813    7.7978 H   0  0  0  0  0  0
  -25.0130  -16.5139    7.0263 H   0  0  0  0  0  0
  -23.9262  -14.7613    5.3830 H   0  0  0  0  0  0
  -23.1061  -16.3013    5.3275 H   0  0  0  0  0  0
  -20.0456  -16.1461    3.2792 H   0  0  0  0  0  0
  -18.0392  -18.4847    1.3120 H   0  0  0  0  0  0
  -17.9305  -17.3352    2.6325 H   0  0  0  0  0  0
  -19.4898  -18.1040    2.2274 H   0  0  0  0  0  0
  -22.6112  -17.4189    7.3496 H   0  0  0  0  0  0
  -22.0480  -11.5126    1.2895 H   0  0  0  0  0  0
  1  2  1  0  0  0
  1 32  1  0  0  0
  1 33  1  0  0  0
  1 34  1  0  0  0
  2  3  1  0  0  0
  3 29  1  0  0  0
  3  4  2  0  0  0
  4  5  1  0  0  0
  4 35  1  0  0  0
  5 27  2  0  0  0
  5  6  1  0  0  0
  6  7  2  0  0  0
  6 64  1  0  0  0
  7  8  1  0  0  0
  7 17  1  0  0  0
  8  9  1  0  0  0
  8 10  1  0  0  0
  9 36  1  0  0  0
  9 37  1  0  0  0
  9 38  1  0  0  0
 10 11  1  0  0  0
 10 39  1  0  0  0
 10 40  1  0  0  0
 11 16  1  0  0  0
 11 12  2  0  0  0
 12 13  1  0  0  0
 12 41  1  0  0  0
 13 14  2  0  0  0
 13 42  1  0  0  0
 14 15  1  0  0  0
 14 43  1  0  0  0
 15 16  2  0  0  0
 15 44  1  0  0  0
 16 45  1  0  0  0
 17 18  2  0  0  0
 18 19  1  0  0  0
 18 27  1  0  0  0
 19 20  1  0  0  0
 19 46  1  0  0  0
 20 26  1  0  0  0
 20 21  1  0  0  0
 20 47  1  0  0  0
 21 22  1  0  0  0
 21 48  1  0  0  0
 21 49  1  0  0  0
 22 23  1  0  0  0
 22 50  1  0  0  0
 22 51  1  0  0  0
 23 24  1  0  0  0
 23 25  1  0  0  0
 23 63  1  0  0  0
 24 52  1  0  0  0
 24 53  1  0  0  0
 24 54  1  0  0  0
 25 26  1  0  0  0
 25 55  1  0  0  0
 25 56  1  0  0  0
 26 57  1  0  0  0
 26 58  1  0  0  0
 27 28  1  0  0  0
 28 29  2  0  0  0
 28 59  1  0  0  0
 29 30  1  0  0  0
 30 31  1  0  0  0
 31 60  1  0  0  0
 31 61  1  0  0  0
 31 62  1  0  0  0
M  CHG  2   6   1  23   1
M  END
> <Tot Q>
2

> <Source File Index>
662

> <i_f3d_flags>
0

> <subgroup collapsed>
0

> <Ionization Penalty>
0.0121

> <State Penalty>
0.008

> <docking score>
-4.25659

> <glide emodel>
-43.453

> <glide gscore>
-4.26458

> <tautomer probability>
0.993508

> <Source File>
Sries47256_dock_SP_confgen_100_lib.maegz

> <Source Path>
C:\Users\yujie\Desktop\two_s\data

> <entry id>
42485

> <subgroup title>
a

> <subgroupid>
Sries47256_dock_SP_confgen_100_lib

$$$$
