lig2
                    3D
 Schrodinger Suite 2024-1.
 58 60  0  0  1  0            999 V2000
  -18.4284  -17.9349    0.9294 C   0  0  0  0  0  0
  -18.6727  -16.6712    0.3183 O   0  0  0  0  0  0
  -19.4698  -15.7408    0.9618 C   0  0  0  0  0  0
  -20.0134  -15.9494    2.2398 C   0  0  0  0  0  0
  -20.8177  -14.9557    2.8257 C   0  0  0  0  0  0
  -21.3355  -15.1090    4.0882 N   0  3  0  0  0  0
  -22.1447  -14.1962    4.6528 C   0  0  0  0  0  0
  -22.7294  -14.4075    5.9432 N   0  0  0  0  0  0
  -22.0590  -15.3032    6.9068 C   0  0  0  0  0  0
  -23.9195  -13.6113    6.3264 C   0  0  0  0  0  0
  -24.7690  -14.2430    7.4241 C   0  0  0  0  0  0
  -26.1320  -13.8784    7.3200 O   0  0  0  0  0  0
  -22.4881  -13.0496    4.0187 N   0  0  0  0  0  0
  -21.9555  -12.7982    2.8027 C   0  0  0  0  0  0
  -22.2310  -11.5448    2.2240 N   0  0  0  0  0  0
  -22.9617  -10.4604    2.8777 C   0  0  2  0  0  0
  -23.2977   -9.4026    1.8033 C   0  0  0  0  0  0
  -23.9563   -8.1454    2.4035 C   0  0  0  0  0  0
  -23.0355   -7.5830    3.5135 N   0  3  1  0  0  0
  -23.6406   -6.3047    4.1355 C   0  0  0  0  0  0
  -22.7996   -8.6273    4.6241 C   0  0  0  0  0  0
  -22.1076   -9.8499    4.0051 C   0  0  0  0  0  0
  -21.1271  -13.7501    2.1344 C   0  0  0  0  0  0
  -20.5699  -13.5774    0.8464 C   0  0  0  0  0  0
  -19.7302  -14.5430    0.2757 C   0  0  0  0  0  0
  -19.1272  -14.3619   -0.9564 O   0  0  0  0  0  0
  -19.3466  -13.1586   -1.6836 C   0  0  0  0  0  0
  -17.7811  -18.5281    0.2831 H   0  0  0  0  0  0
  -17.9271  -17.8312    1.8921 H   0  0  0  0  0  0
  -19.3542  -18.4949    1.0707 H   0  0  0  0  0  0
  -19.8289  -16.8516    2.8034 H   0  0  0  0  0  0
  -22.5883  -16.2560    6.9326 H   0  0  0  0  0  0
  -21.0210  -15.4775    6.6246 H   0  0  0  0  0  0
  -22.0778  -14.8442    7.8958 H   0  0  0  0  0  0
  -23.5792  -12.6172    6.6227 H   0  0  0  0  0  0
  -24.5225  -13.4784    5.4301 H   0  0  0  0  0  0
  -24.7189  -15.3323    7.4239 H   0  0  0  0  0  0
  -24.3272  -13.8765    8.3457 H   0  0  0  0  0  0
  -26.1645  -12.8930    7.4241 H   0  0  0  0  0  0
  -21.7072  -11.2933    1.3869 H   0  0  0  0  0  0
  -23.8819  -10.8762    3.2949 H   0  0  0  0  0  0
  -22.3940   -9.1037    1.2661 H   0  0  0  0  0  0
  -23.9626   -9.8341    1.0533 H   0  0  0  0  0  0
  -24.9235   -8.3652    2.8605 H   0  0  0  0  0  0
  -24.0823   -7.3603    1.6556 H   0  0  0  0  0  0
  -24.5870   -6.5643    4.6160 H   0  0  0  0  0  0
  -22.9233   -5.9266    4.8672 H   0  0  0  0  0  0
  -23.7831   -5.5802    3.3323 H   0  0  0  0  0  0
  -23.7813   -8.8818    5.0241 H   0  0  0  0  0  0
  -22.1955   -8.1502    5.3974 H   0  0  0  0  0  0
  -21.9285  -10.5888    4.7862 H   0  0  0  0  0  0
  -21.1269   -9.5608    3.6320 H   0  0  0  0  0  0
  -20.8032  -12.6784    0.3077 H   0  0  0  0  0  0
  -18.7260  -13.1650   -2.5767 H   0  0  0  0  0  0
  -19.0700  -12.2784   -1.1026 H   0  0  0  0  0  0
  -20.3877  -13.0701   -1.9984 H   0  0  0  0  0  0
  -22.1321   -7.3603    3.1099 H   0  0  0  0  0  0
  -21.1271  -15.9688    4.6013 H   0  0  0  0  0  0
  1  2  1  0  0  0
  1 28  1  0  0  0
  1 29  1  0  0  0
  1 30  1  0  0  0
  2  3  1  0  0  0
  3 25  1  0  0  0
  3  4  2  0  0  0
  4  5  1  0  0  0
  4 31  1  0  0  0
  5 23  2  0  0  0
  5  6  1  0  0  0
  6  7  2  0  0  0
  6 58  1  0  0  0
  7  8  1  0  0  0
  7 13  1  0  0  0
  8  9  1  0  0  0
  8 10  1  0  0  0
  9 32  1  0  0  0
  9 33  1  0  0  0
  9 34  1  0  0  0
 10 11  1  0  0  0
 10 35  1  0  0  0
 10 36  1  0  0  0
 11 12  1  0  0  0
 11 37  1  0  0  0
 11 38  1  0  0  0
 12 39  1  0  0  0
 13 14  2  0  0  0
 14 15  1  0  0  0
 14 23  1  0  0  0
 15 16  1  0  0  0
 15 40  1  0  0  0
 16 22  1  0  0  0
 16 17  1  0  0  0
 16 41  1  0  0  0
 17 18  1  0  0  0
 17 42  1  0  0  0
 17 43  1  0  0  0
 18 19  1  0  0  0
 18 44  1  0  0  0
 18 45  1  0  0  0
 19 20  1  0  0  0
 19 21  1  0  0  0
 19 57  1  0  0  0
 20 46  1  0  0  0
 20 47  1  0  0  0
 20 48  1  0  0  0
 21 22  1  0  0  0
 21 49  1  0  0  0
 21 50  1  0  0  0
 22 51  1  0  0  0
 22 52  1  0  0  0
 23 24  1  0  0  0
 24 25  2  0  0  0
 24 53  1  0  0  0
 25 26  1  0  0  0
 26 27  1  0  0  0
 27 54  1  0  0  0
 27 55  1  0  0  0
 27 56  1  0  0  0
M  CHG  2   6   1  19   1
M  END
> <Tot Q>
2

> <Source File Index>
2

> <i_f3d_flags>
0

> <subgroup collapsed>
0

> <Ionization Penalty>
0.0059

> <State Penalty>
0

> <docking score>
-7.20685

> <glide emodel>
-89.7936

> <glide gscore>
-7.20685

> <tautomer probability>
1

> <Source File>
Sries47256_dock_SP_confgen_100_lib.maegz

> <Source Path>
C:\Users\yujie\Desktop\two_s\data

> <entry id>
41825

> <subgroup title>
a

> <subgroupid>
Sries47256_dock_SP_confgen_100_lib

$$$$
