lig25
                    3D
 Schrodinger Suite 2020-3.
 60 62  0  0  1  0            999 V2000
  -18.5357  -17.9529    1.1429 C   0  0  0  0  0  0
  -18.8356  -16.6883    0.5564 O   0  0  0  0  0  0
  -19.6415  -15.7890    1.2349 C   0  0  0  0  0  0
  -20.1791  -16.0485    2.5025 C   0  0  0  0  0  0
  -20.9975  -15.0905    3.1300 C   0  0  0  0  0  0
  -21.5269  -15.3109    4.3788 N   0  3  0  0  0  0
  -22.2912  -14.4158    5.0331 C   0  0  0  0  0  0
  -22.8283  -14.6804    6.3593 N   0  0  0  0  0  0
  -23.7987  -13.7390    6.9652 C   0  0  0  0  0  0
  -22.2996  -15.7934    7.1907 C   0  0  0  0  0  0
  -23.3368  -16.8770    7.5200 C   0  0  0  0  0  0
  -21.5851  -15.2923    8.4436 C   0  0  0  0  0  0
  -22.5855  -13.2156    4.4730 N   0  0  0  0  0  0
  -22.0754  -12.9158    3.2479 C   0  0  0  0  0  0
  -22.3122  -11.6260    2.7302 N   0  0  0  0  0  0
  -23.0224  -10.5786    3.4639 C   0  0  2  0  0  0
  -24.3795  -10.3356    2.7822 C   0  0  0  0  0  0
  -25.1333   -9.1765    3.4573 C   0  0  0  0  0  0
  -24.2391   -7.9153    3.3986 N   0  3  1  0  0  0
  -24.9926   -6.7065    3.9954 C   0  0  0  0  0  0
  -22.8890   -8.1255    4.1263 C   0  0  0  0  0  0
  -22.1558   -9.3036    3.4570 C   0  0  0  0  0  0
  -21.2851  -13.8465    2.5063 C   0  0  0  0  0  0
  -20.7288  -13.6140    1.2196 C   0  0  0  0  0  0
  -19.9140  -14.5694    0.5948 C   0  0  0  0  0  0
  -19.3370  -14.3709   -0.6475 O   0  0  0  0  0  0
  -19.5701  -13.1600   -1.3603 C   0  0  0  0  0  0
  -17.9048  -18.5240    0.4607 H   0  0  0  0  0  0
  -17.9890  -17.8489    2.0831 H   0  0  0  0  0  0
  -19.4401  -18.5376    1.3180 H   0  0  0  0  0  0
  -19.9736  -16.9694    3.0238 H   0  0  0  0  0  0
  -24.5181  -13.3990    6.2219 H   0  0  0  0  0  0
  -24.3363  -14.2212    7.7823 H   0  0  0  0  0  0
  -23.2584  -12.8808    7.3644 H   0  0  0  0  0  0
  -21.5272  -16.2784    6.6241 H   0  0  0  0  0  0
  -22.8543  -17.7424    7.9772 H   0  0  0  0  0  0
  -24.0898  -16.5354    8.2233 H   0  0  0  0  0  0
  -23.8357  -17.2343    6.6242 H   0  0  0  0  0  0
  -21.2287  -16.1117    9.0679 H   0  0  0  0  0  0
  -20.7265  -14.6784    8.1853 H   0  0  0  0  0  0
  -22.2792  -14.6906    9.0206 H   0  0  0  0  0  0
  -21.9768  -11.4037    1.7999 H   0  0  0  0  0  0
  -23.1967  -10.8732    4.5015 H   0  0  0  0  0  0
  -24.2481  -10.1268    1.7176 H   0  0  0  0  0  0
  -24.9879  -11.2395    2.8406 H   0  0  0  0  0  0
  -25.3463   -9.3807    4.5112 H   0  0  0  0  0  0
  -26.0665   -8.9457    2.9415 H   0  0  0  0  0  0
  -25.2673   -6.9438    5.0238 H   0  0  0  0  0  0
  -24.3251   -5.8425    3.9542 H   0  0  0  0  0  0
  -25.8821   -6.5397    3.3843 H   0  0  0  0  0  0
  -23.1026   -8.3193    5.1800 H   0  0  0  0  0  0
  -22.3266   -7.1933    4.0449 H   0  0  0  0  0  0
  -21.2230   -9.4856    3.9938 H   0  0  0  0  0  0
  -21.8653   -9.0331    2.4393 H   0  0  0  0  0  0
  -20.9390  -12.6794    0.7310 H   0  0  0  0  0  0
  -19.0675  -13.2161   -2.3250 H   0  0  0  0  0  0
  -19.1621  -12.2998   -0.8305 H   0  0  0  0  0  0
  -20.6327  -12.9987   -1.5478 H   0  0  0  0  0  0
  -24.0313   -7.7233    2.4258 H   0  0  0  0  0  0
  -21.2576  -16.1777    4.8572 H   0  0  0  0  0  0
  1  2  1  0  0  0
  1 28  1  0  0  0
  1 29  1  0  0  0
  1 30  1  0  0  0
  2  3  1  0  0  0
  3 25  1  0  0  0
  3  4  2  0  0  0
  4  5  1  0  0  0
  4 31  1  0  0  0
  5 23  2  0  0  0
  5  6  1  0  0  0
  6  7  2  0  0  0
  6 60  1  0  0  0
  7  8  1  0  0  0
  7 13  1  0  0  0
  8  9  1  0  0  0
  8 10  1  0  0  0
  9 32  1  0  0  0
  9 33  1  0  0  0
  9 34  1  0  0  0
 10 11  1  0  0  0
 10 12  1  0  0  0
 10 35  1  0  0  0
 11 36  1  0  0  0
 11 37  1  0  0  0
 11 38  1  0  0  0
 12 39  1  0  0  0
 12 40  1  0  0  0
 12 41  1  0  0  0
 13 14  2  0  0  0
 14 15  1  0  0  0
 14 23  1  0  0  0
 15 16  1  0  0  0
 15 42  1  0  0  0
 16 22  1  0  0  0
 16 17  1  0  0  0
 16 43  1  0  0  0
 17 18  1  0  0  0
 17 44  1  0  0  0
 17 45  1  0  0  0
 18 19  1  0  0  0
 18 46  1  0  0  0
 18 47  1  0  0  0
 19 20  1  0  0  0
 19 21  1  0  0  0
 19 59  1  0  0  0
 20 48  1  0  0  0
 20 49  1  0  0  0
 20 50  1  0  0  0
 21 22  1  0  0  0
 21 51  1  0  0  0
 21 52  1  0  0  0
 22 53  1  0  0  0
 22 54  1  0  0  0
 23 24  1  0  0  0
 24 25  2  0  0  0
 24 55  1  0  0  0
 25 26  1  0  0  0
 26 27  1  0  0  0
 27 56  1  0  0  0
 27 57  1  0  0  0
 27 58  1  0  0  0
M  CHG  2   6   1  19   1
M  END
> <s_m_source_file>
/home/user-home/yujie/0_PBCNetv2/data/0_0_high_sim/0_noncov/Sries47256/ligprep_input.csv

> <i_m_source_file_index>
26

> <i_lp_mmshare_version>
51139

> <i_f3d_flags>
0

> <s_epik_input>
W0NIM11PYyhbY0hdMSljKE9bQ0gzXSlbY0hdYyhjMTIpYyhuYyhuMilOKFtDSDNdKVtDSF0oW0NIM10pW0NIM10pW05IXVtDSF0zW0NIMl1bQ0gyXU4oW0NIM10pW0NIMl1bQ0gyXTM=

> <s_epik_cmdline>
J2VwaWtfcHl0aG9uJywgJy1waHQnLCAnMi4wJywgJy1waCcsICc3LjQnLCAnLXRuJywgJzgnLCAnLW1hJywgJzIwMCcsICctaW1hZScsICc8aW5maWxlLm1hZT4nLCAnLW9tYWUnLCAnPG91dGZpbGUubWFlPic=

> <r_lp_tautomer_probability>
0.993508

> <r_epik_Ionization_Penalty>
  0.0094

> <r_epik_Ionization_Penalty_Charging>
  0.0094

> <r_epik_Ionization_Penalty_Neutral>
  0.0000

> <r_epik_State_Penalty>
  0.0058

> <r_epik_Charging_Adjusted_Penalty>
0.0152026

> <i_epik_Tot_Q>
2

> <i_epik_Tot_abs_Q>
2

> <s_lp_Force_Field>
OPLS3e

> <r_lp_Energy>
58.5822

> <b_lp_Chiralities_Consistent>
1

> <s_lp_Variant>
lig25-1

> <s_i_glide_gridfile>
Sries47258-001-gridgen

> <i_i_glide_lignum>
37

> <i_i_glide_rotatable_bonds>
6

> <r_i_docking_score>
-6.00226005577875

> <r_i_glide_ligand_efficiency>
-0.222305927991805

> <r_i_glide_ligand_efficiency_sa>
-0.666917783242732

> <r_i_glide_ligand_efficiency_ln>
-1.39722718599452

> <r_i_glide_gscore>
-6.00808217577875

> <r_i_glide_lipo>
-1.52929873316024

> <r_i_glide_hbond>
-0.214354913476047

> <r_i_glide_metal>
-0

> <r_i_glide_rewards>
-1.14188703555414

> <r_i_glide_evdw>
-34.3042869567871

> <r_i_glide_ecoul>
-11.1088609695435

> <r_i_glide_erotb>
0.411632498311793

> <r_i_glide_esite>
-0.15263049862924

> <r_i_glide_emodel>
-74.1390318441843

> <r_i_glide_energy>
-45.4131479263306

> <r_i_glide_einternal>
5.36213111877441

> <i_i_glide_confnum>
5

> <i_i_glide_posenum>
365

> <r_i_glide_eff_state_penalty>
0.00582212

$$$$
