lig14
                    3D
 Schrodinger Suite 2020-3.
 69 73  0  0  1  0            999 V2000
   -5.4977  -22.3215    9.6731 C   0  0  0  0  0  0
   -5.8801  -21.8262    7.9074 S   0  0  0  0  0  0
   -5.4063  -20.4497    7.7231 O   0  0  0  0  0  0
   -7.2819  -22.1635    7.6396 O   0  0  0  0  0  0
   -4.8588  -22.9223    6.9416 N   0  0  1  0  0  0
   -5.3844  -23.2624    5.5896 C   0  0  0  0  0  0
   -5.4027  -22.0376    4.6403 C   0  0  0  0  0  0
   -4.1026  -21.2595    4.8684 C   0  0  0  0  0  0
   -3.1591  -21.5214    5.8661 C   0  0  0  0  0  0
   -2.1061  -20.6214    5.6158 C   0  0  0  0  0  0
   -0.8212  -20.4484    6.3707 C   0  0  0  0  0  0
   -0.1457  -19.2282    6.3098 C   0  0  0  0  0  0
    1.0160  -18.9907    7.0344 C   0  0  0  0  0  0
    1.5408  -20.0006    7.8349 C   0  0  0  0  0  0
    3.0248  -19.6657    8.6391 Cl  0  0  0  0  0  0
    0.9240  -21.2632    7.8594 C   0  0  0  0  0  0
    1.4824  -22.3748    8.6163 C   0  0  0  0  0  0
    1.9032  -23.2895    9.3070 C   0  0  0  0  0  0
    2.3593  -24.3240   10.2207 C   0  0  0  0  0  0
    1.7012  -25.5556   10.2752 C   0  0  0  0  0  0
    2.1005  -26.5118   11.2080 C   0  0  0  0  0  0
    3.1488  -26.2269   12.0829 C   0  0  0  0  0  0
    3.6194  -27.3839   13.2729 Cl  0  0  0  0  0  0
    3.8165  -25.0070   12.0123 C   0  0  0  0  0  0
    3.4278  -24.0557   11.0753 C   0  0  0  0  0  0
   -0.2582  -21.4724    7.1379 C   0  0  0  0  0  0
   -2.4150  -19.8051    4.6263 N   0  0  0  0  0  0
   -3.6265  -20.1632    4.1920 N   0  0  0  0  0  0
   -4.2229  -19.3889    3.0987 C   0  0  0  0  0  0
   -5.7124  -19.0268    3.3233 C   0  0  0  0  0  0
   -6.1116  -18.5003    4.7245 C   0  0  0  0  0  0
   -5.4284  -17.1630    5.1148 N   0  3  0  0  0  0
   -5.7994  -16.8374    6.5864 C   0  0  0  0  0  0
   -5.2721  -15.4412    6.9703 C   0  0  0  0  0  0
   -5.7349  -14.4671    6.0410 O   0  0  0  0  0  0
   -5.2747  -14.6784    4.7101 C   0  0  0  0  0  0
   -5.8308  -16.0076    4.1644 C   0  0  0  0  0  0
   -3.4032  -22.5963    6.9266 C   0  0  0  0  0  0
   -6.0643  -21.6796   10.3458 H   0  0  0  0  0  0
   -5.7815  -23.3631    9.8158 H   0  0  0  0  0  0
   -4.4311  -22.1876    9.8349 H   0  0  0  0  0  0
   -6.3129  -23.8282    5.6797 H   0  0  0  0  0  0
   -4.6687  -23.9650    5.1566 H   0  0  0  0  0  0
   -6.2742  -21.4290    4.8790 H   0  0  0  0  0  0
   -5.4955  -22.3664    3.6052 H   0  0  0  0  0  0
   -0.5393  -18.4376    5.7068 H   0  0  0  0  0  0
    1.5150  -18.0345    6.9566 H   0  0  0  0  0  0
    0.8702  -25.7691    9.6172 H   0  0  0  0  0  0
    1.5857  -27.4598   11.2678 H   0  0  0  0  0  0
    4.6196  -24.7875   12.6973 H   0  0  0  0  0  0
    3.9404  -23.1043   11.0347 H   0  0  0  0  0  0
   -0.7330  -22.4426    7.1634 H   0  0  0  0  0  0
   -3.6453  -18.4699    2.9701 H   0  0  0  0  0  0
   -4.0998  -19.9700    2.1840 H   0  0  0  0  0  0
   -6.0254  -18.3206    2.5555 H   0  0  0  0  0  0
   -6.3143  -19.9120    3.1181 H   0  0  0  0  0  0
   -7.1875  -18.3225    4.7888 H   0  0  0  0  0  0
   -5.8372  -19.2057    5.5082 H   0  0  0  0  0  0
   -6.8863  -16.8854    6.6730 H   0  0  0  0  0  0
   -5.3554  -17.6166    7.2092 H   0  0  0  0  0  0
   -4.1848  -15.4278    7.0340 H   0  0  0  0  0  0
   -5.6310  -15.1668    7.9628 H   0  0  0  0  0  0
   -4.1840  -14.6633    4.6744 H   0  0  0  0  0  0
   -5.6129  -13.8468    4.0914 H   0  0  0  0  0  0
   -5.4101  -16.2313    3.1841 H   0  0  0  0  0  0
   -6.9199  -15.9965    4.1002 H   0  0  0  0  0  0
   -2.8652  -23.5123    6.6802 H   0  0  0  0  0  0
   -3.0897  -22.2903    7.9252 H   0  0  0  0  0  0
   -4.4199  -17.2576    5.0763 H   0  0  0  0  0  0
  1  2  1  0  0  0
  1 39  1  0  0  0
  1 40  1  0  0  0
  1 41  1  0  0  0
  2  3  2  0  0  0
  2  4  2  0  0  0
  2  5  1  0  0  0
  5 38  1  0  0  0
  5  6  1  0  0  0
  6  7  1  0  0  0
  6 42  1  0  0  0
  6 43  1  0  0  0
  7  8  1  0  0  0
  7 44  1  0  0  0
  7 45  1  0  0  0
  8 28  1  0  0  0
  8  9  2  0  0  0
  9 10  1  0  0  0
  9 38  1  0  0  0
 10 11  1  0  0  0
 10 27  2  0  0  0
 11 26  1  0  0  0
 11 12  2  0  0  0
 12 13  1  0  0  0
 12 46  1  0  0  0
 13 14  2  0  0  0
 13 47  1  0  0  0
 14 15  1  0  0  0
 14 16  1  0  0  0
 16 17  1  0  0  0
 16 26  2  0  0  0
 17 18  3  0  0  0
 18 19  1  0  0  0
 19 25  1  0  0  0
 19 20  2  0  0  0
 20 21  1  0  0  0
 20 48  1  0  0  0
 21 22  2  0  0  0
 21 49  1  0  0  0
 22 23  1  0  0  0
 22 24  1  0  0  0
 24 25  2  0  0  0
 24 50  1  0  0  0
 25 51  1  0  0  0
 26 52  1  0  0  0
 27 28  1  0  0  0
 28 29  1  0  0  0
 29 30  1  0  0  0
 29 53  1  0  0  0
 29 54  1  0  0  0
 30 31  1  0  0  0
 30 55  1  0  0  0
 30 56  1  0  0  0
 31 32  1  0  0  0
 31 57  1  0  0  0
 31 58  1  0  0  0
 32 37  1  0  0  0
 32 33  1  0  0  0
 32 69  1  0  0  0
 33 34  1  0  0  0
 33 59  1  0  0  0
 33 60  1  0  0  0
 34 35  1  0  0  0
 34 61  1  0  0  0
 34 62  1  0  0  0
 35 36  1  0  0  0
 36 37  1  0  0  0
 36 63  1  0  0  0
 36 64  1  0  0  0
 37 65  1  0  0  0
 37 66  1  0  0  0
 38 67  1  0  0  0
 38 68  1  0  0  0
M  CHG  1  32   1
M  END
> <s_m_source_file>
/home/user-home/yujie/0_PBCNetv2/data/0_0_high_sim/0_noncov/Sries20631/ligprep_input.csv

> <i_m_source_file_index>
15

> <i_lp_mmshare_version>
51139

> <i_f3d_flags>
0

> <s_epik_input>
W0NIMl0xW0NIMl1PW0NIMl1bQ0gyXU4xW0NIMl1bQ0gyXVtDSDJdbjJuYyhjKGMyMylbQ0gyXU4oUyg9TykoPU8pW0NIM10pW0NIMl1bQ0gyXTMpLWM0W2NIXVtjSF1jKENsKWMoW2NIXTQpQyNDYzVbY0hdW2NIXWMoQ2wpW2NIXVtjSF01

> <s_epik_cmdline>
J2VwaWtfcHl0aG9uJywgJy1waHQnLCAnMi4wJywgJy1waCcsICc3LjQnLCAnLXRuJywgJzgnLCAnLW1hJywgJzIwMCcsICctaW1hZScsICc8aW5maWxlLm1hZT4nLCAnLW9tYWUnLCAnPG91dGZpbGUubWFlPic=

> <r_lp_tautomer_probability>
1

> <r_epik_Ionization_Penalty>
  0.7265

> <r_epik_Ionization_Penalty_Charging>
  0.7265

> <r_epik_Ionization_Penalty_Neutral>
  0.0000

> <r_epik_State_Penalty>
  0.7514

> <r_epik_Charging_Adjusted_Penalty>
1.47793

> <i_epik_Tot_Q>
1

> <i_epik_Tot_abs_Q>
1

> <s_lp_Force_Field>
OPLS3e

> <r_lp_Energy>
49.2226

> <b_lp_Chiralities_Consistent>
1

> <s_lp_Variant>
lig14-2

> <s_i_glide_gridfile>
Sries20631-001-gridgen

> <i_i_glide_lignum>
30

> <i_i_glide_rotatable_bonds>
8

> <r_i_docking_score>
-4.10747358430803

> <r_i_glide_ligand_efficiency>
-0.108091410113369

> <r_i_glide_ligand_efficiency_sa>
-0.363400662046734

> <r_i_glide_ligand_efficiency_ln>
-0.885692134407776

> <r_i_glide_gscore>
-4.85888358430803

> <r_i_glide_lipo>
-3.00963226442519

> <r_i_glide_hbond>
0

> <r_i_glide_metal>
-0

> <r_i_glide_rewards>
-0.0175657460347639

> <r_i_glide_evdw>
-29.7084445953369

> <r_i_glide_ecoul>
-4.01053524017334

> <r_i_glide_erotb>
0.285056196920901

> <r_i_glide_esite>
-0.029739254976126

> <r_i_glide_emodel>
-43.1984923780005

> <r_i_glide_energy>
-33.7189798355103

> <r_i_glide_einternal>
8.11665439605713

> <i_i_glide_confnum>
21

> <i_i_glide_posenum>
382

> <r_i_glide_eff_state_penalty>
0.75141

$$$$
