lig4
                    3D
 Schrodinger Suite 2024-1.
 69 73  0  0  1  0            999 V2000
   -0.5522  -29.3710    6.4790 C   0  0  0  0  0  0
   -1.6945  -27.9308    6.0823 S   0  0  0  0  0  0
   -2.0008  -27.2365    7.3395 O   0  0  0  0  0  0
   -2.7753  -28.4365    5.2280 O   0  0  0  0  0  0
   -0.6708  -26.8691    5.0975 N   0  0  1  0  0  0
   -1.3470  -26.1059    4.0112 C   0  0  0  0  0  0
   -2.1979  -24.9289    4.5495 C   0  0  0  0  0  0
   -1.3480  -24.2083    5.5963 C   0  0  0  0  0  0
   -0.1938  -24.7137    6.1863 C   0  0  0  0  0  0
    0.2483  -23.6843    7.0303 C   0  0  0  0  0  0
    1.4044  -23.7263    7.9549 C   0  0  0  0  0  0
    2.3539  -22.7106    7.9092 C   0  0  0  0  0  0
    3.4688  -22.7584    8.7379 C   0  0  0  0  0  0
    3.6087  -23.7870    9.6741 C   0  0  0  0  0  0
    5.0159  -23.7892   10.6817 Cl  0  0  0  0  0  0
    2.6152  -24.7779    9.7773 C   0  0  0  0  0  0
    2.6512  -25.8114   10.8062 C   0  0  0  0  0  0
    2.6462  -26.6199   11.7212 C   0  0  0  0  0  0
    2.6241  -27.5480   12.8444 C   0  0  0  0  0  0
    1.8183  -28.6866   12.7876 C   0  0  0  0  0  0
    1.8159  -29.5855   13.8507 C   0  0  0  0  0  0
    2.6163  -29.3406   14.9663 C   0  0  0  0  0  0
    3.4152  -28.1975   15.0316 C   0  0  0  0  0  0
    3.4159  -27.2968   13.9681 C   0  0  0  0  0  0
    1.5326  -24.7537    8.8933 C   0  0  0  0  0  0
   -0.5041  -22.6049    6.9327 N   0  0  0  0  0  0
   -1.4776  -22.9238    6.0716 N   0  0  0  0  0  0
   -2.5228  -21.9465    5.7887 C   0  0  0  0  0  0
   -1.9692  -20.6759    5.1108 C   0  0  0  0  0  0
   -3.0973  -19.6950    4.7286 C   0  0  0  0  0  0
   -2.5827  -18.4474    3.9675 N   0  3  0  0  0  0
   -3.7518  -17.4520    3.7563 C   0  0  0  0  0  0
   -3.2862  -16.2589    2.8955 C   0  0  0  0  0  0
   -2.6919  -16.7156    1.6855 O   0  0  0  0  0  0
   -1.5261  -17.5043    1.8836 C   0  0  0  0  0  0
   -1.8927  -18.8004    2.6295 C   0  0  0  0  0  0
    0.3614  -26.0952    5.8479 C   0  0  0  0  0  0
   -1.1076  -30.0974    7.0698 H   0  0  0  0  0  0
   -0.2222  -29.8192    5.5436 H   0  0  0  0  0  0
    0.3035  -29.0031    7.0432 H   0  0  0  0  0  0
   -1.8441  -26.7917    3.3252 H   0  0  0  0  0  0
   -0.5437  -25.6522    3.4296 H   0  0  0  0  0  0
   -3.1084  -25.3138    5.0106 H   0  0  0  0  0  0
   -2.4961  -24.2653    3.7391 H   0  0  0  0  0  0
    2.2228  -21.8947    7.2159 H   0  0  0  0  0  0
    4.2172  -21.9861    8.6450 H   0  0  0  0  0  0
    1.2001  -28.8828   11.9220 H   0  0  0  0  0  0
    1.1935  -30.4685   13.8140 H   0  0  0  0  0  0
    2.6069  -30.0344   15.7929 H   0  0  0  0  0  0
    4.0236  -28.0093   15.9029 H   0  0  0  0  0  0
    4.0362  -26.4142   14.0225 H   0  0  0  0  0  0
    0.7624  -25.5122    8.9551 H   0  0  0  0  0  0
   -3.2799  -22.4205    5.1597 H   0  0  0  0  0  0
   -3.0217  -21.7050    6.7286 H   0  0  0  0  0  0
   -1.2619  -20.1721    5.7726 H   0  0  0  0  0  0
   -1.3995  -20.9820    4.2347 H   0  0  0  0  0  0
   -3.8414  -20.1595    4.0798 H   0  0  0  0  0  0
   -3.5909  -19.3105    5.6241 H   0  0  0  0  0  0
   -4.5710  -17.9943    3.2840 H   0  0  0  0  0  0
   -4.0599  -17.1174    4.7491 H   0  0  0  0  0  0
   -2.5837  -15.6248    3.4370 H   0  0  0  0  0  0
   -4.1363  -15.6244    2.6496 H   0  0  0  0  0  0
   -0.7726  -16.9374    2.4350 H   0  0  0  0  0  0
   -1.0904  -17.7356    0.9124 H   0  0  0  0  0  0
   -0.9893  -19.3628    2.8601 H   0  0  0  0  0  0
   -2.5782  -19.4273    2.0557 H   0  0  0  0  0  0
    1.2216  -25.9973    5.1877 H   0  0  0  0  0  0
    0.6870  -26.6635    6.7188 H   0  0  0  0  0  0
   -1.8950  -17.9386    4.5311 H   0  0  0  0  0  0
  1  2  1  0  0  0
  1 38  1  0  0  0
  1 39  1  0  0  0
  1 40  1  0  0  0
  2  3  2  0  0  0
  2  4  2  0  0  0
  2  5  1  0  0  0
  5 37  1  0  0  0
  5  6  1  0  0  0
  6  7  1  0  0  0
  6 41  1  0  0  0
  6 42  1  0  0  0
  7  8  1  0  0  0
  7 43  1  0  0  0
  7 44  1  0  0  0
  8 27  1  0  0  0
  8  9  2  0  0  0
  9 10  1  0  0  0
  9 37  1  0  0  0
 10 11  1  0  0  0
 10 26  2  0  0  0
 11 25  1  0  0  0
 11 12  2  0  0  0
 12 13  1  0  0  0
 12 45  1  0  0  0
 13 14  2  0  0  0
 13 46  1  0  0  0
 14 15  1  0  0  0
 14 16  1  0  0  0
 16 17  1  0  0  0
 16 25  2  0  0  0
 17 18  3  0  0  0
 18 19  1  0  0  0
 19 24  1  0  0  0
 19 20  2  0  0  0
 20 21  1  0  0  0
 20 47  1  0  0  0
 21 22  2  0  0  0
 21 48  1  0  0  0
 22 23  1  0  0  0
 22 49  1  0  0  0
 23 24  2  0  0  0
 23 50  1  0  0  0
 24 51  1  0  0  0
 25 52  1  0  0  0
 26 27  1  0  0  0
 27 28  1  0  0  0
 28 29  1  0  0  0
 28 53  1  0  0  0
 28 54  1  0  0  0
 29 30  1  0  0  0
 29 55  1  0  0  0
 29 56  1  0  0  0
 30 31  1  0  0  0
 30 57  1  0  0  0
 30 58  1  0  0  0
 31 36  1  0  0  0
 31 32  1  0  0  0
 31 69  1  0  0  0
 32 33  1  0  0  0
 32 59  1  0  0  0
 32 60  1  0  0  0
 33 34  1  0  0  0
 33 61  1  0  0  0
 33 62  1  0  0  0
 34 35  1  0  0  0
 35 36  1  0  0  0
 35 63  1  0  0  0
 35 64  1  0  0  0
 36 65  1  0  0  0
 36 66  1  0  0  0
 37 67  1  0  0  0
 37 68  1  0  0  0
M  CHG  1  31   1
M  END
> <Tot Q>
1

> <Source File Index>
528

> <i_f3d_flags>
0

> <subgroup collapsed>
0

> <Ionization Penalty>
0.7265

> <State Penalty>
0.7514

> <docking score>
-6.4341

> <glide emodel>
-65.7362

> <glide gscore>
-7.18551

> <tautomer probability>
1

> <Source File>
Sries20631_dock_SP_confgen_100_lib.maegz

> <Source Path>
C:\Users\yujie\Desktop\two_s\data

> <entry id>
85462

> <subgroup title>
Sries20631_dock_SP_confgen_100_lib

> <subgroupid>
Sries20631_dock_SP_confgen_100_lib

$$$$
