lig17
                    3D
 Schrodinger Suite 2023-4.
 72 76  0  0  1  0            999 V2000
    2.0142  -31.3601   16.3458 C   0  0  0  0  0  0
    2.7534  -30.1479   16.2339 O   0  0  0  0  0  0
    2.6569  -29.3992   15.0781 C   0  0  0  0  0  0
    1.8500  -29.7344   13.9797 C   0  0  0  0  0  0
    1.8172  -28.9085   12.8589 C   0  0  0  0  0  0
    2.6004  -27.7527   12.8262 C   0  0  0  0  0  0
    2.5712  -26.8857   11.6607 C   0  0  0  0  0  0
    2.5586  -26.0749   10.7485 C   0  0  0  0  0  0
    2.5580  -24.9838    9.7825 C   0  0  0  0  0  0
    1.5053  -24.8840    8.8646 C   0  0  0  0  0  0
    1.4163  -23.7864    7.9997 C   0  0  0  0  0  0
    0.3125  -23.6553    7.0092 C   0  0  0  0  0  0
   -0.2953  -22.4994    6.8296 N   0  0  0  0  0  0
   -1.2198  -22.7001    5.8776 N   0  0  0  0  0  0
   -2.1699  -21.6440    5.4958 C   0  0  0  0  0  0
   -1.7054  -20.1912    5.8207 C   0  0  0  0  0  0
   -2.8309  -19.1316    5.8672 C   0  0  0  0  0  0
   -3.3860  -18.9261    7.2136 N   0  0  0  0  0  0
   -4.1224  -20.0889    7.7300 C   0  0  0  0  0  0
   -4.7745  -19.8023    9.0913 C   0  0  0  0  0  0
   -5.5885  -18.6344    9.0336 O   0  0  0  0  0  0
   -4.8530  -17.4805    8.6371 C   0  0  0  0  0  0
   -4.1984  -17.7000    7.2537 C   0  0  0  0  0  0
   -1.2031  -23.9990    5.4350 C   0  0  0  0  0  0
   -0.2031  -24.6429    6.1570 C   0  0  0  0  0  0
    0.1135  -26.1184    5.9434 C   0  0  0  0  0  0
   -0.5066  -26.5664    4.6629 N   0  0  2  0  0  0
   -0.0330  -28.1744    4.0929 S   0  0  0  0  0  0
   -0.8020  -29.3375    5.3531 C   0  0  0  0  0  0
   -0.6868  -28.4167    2.8015 O   0  0  0  0  0  0
    1.4214  -28.2918    4.2250 O   0  0  0  0  0  0
   -1.9417  -26.1945    4.5020 C   0  0  0  0  0  0
   -2.1308  -24.6568    4.4194 C   0  0  0  0  0  0
    2.3866  -22.7852    8.0705 C   0  0  0  0  0  0
    3.4616  -22.9063    8.9401 C   0  0  0  0  0  0
    3.5644  -24.0013    9.7934 C   0  0  0  0  0  0
    4.9483  -24.0842   10.8380 Cl  0  0  0  0  0  0
    3.3995  -27.4110   13.9161 C   0  0  0  0  0  0
    3.4181  -28.2318   15.0372 C   0  0  0  0  0  0
    2.1786  -31.7921   17.3341 H   0  0  0  0  0  0
    2.3354  -32.0896   15.6026 H   0  0  0  0  0  0
    0.9447  -31.1923   16.2346 H   0  0  0  0  0  0
    1.2401  -30.6224   13.9835 H   0  0  0  0  0  0
    1.1876  -29.1734   12.0211 H   0  0  0  0  0  0
    0.7337  -25.6412    8.8396 H   0  0  0  0  0  0
   -2.3648  -21.7327    4.4240 H   0  0  0  0  0  0
   -3.1104  -21.8925    5.9847 H   0  0  0  0  0  0
   -1.2107  -20.1735    6.7929 H   0  0  0  0  0  0
   -0.9676  -19.8828    5.0810 H   0  0  0  0  0  0
   -2.4343  -18.1914    5.4806 H   0  0  0  0  0  0
   -3.6429  -19.4152    5.1942 H   0  0  0  0  0  0
   -4.8825  -20.3990    7.0106 H   0  0  0  0  0  0
   -3.4375  -20.9269    7.8561 H   0  0  0  0  0  0
   -3.9874  -19.7065    9.8350 H   0  0  0  0  0  0
   -5.3921  -20.6460    9.3950 H   0  0  0  0  0  0
   -4.1105  -17.2260    9.3939 H   0  0  0  0  0  0
   -5.5363  -16.6316    8.5888 H   0  0  0  0  0  0
   -3.5763  -16.8423    6.9975 H   0  0  0  0  0  0
   -4.9734  -17.7458    6.4852 H   0  0  0  0  0  0
    1.1862  -26.3069    5.9053 H   0  0  0  0  0  0
   -0.3111  -26.7176    6.7488 H   0  0  0  0  0  0
   -0.5925  -30.3597    5.0452 H   0  0  0  0  0  0
   -0.3588  -29.1397    6.3279 H   0  0  0  0  0  0
   -1.8778  -29.1706    5.3755 H   0  0  0  0  0  0
   -2.4642  -26.5238    5.4015 H   0  0  0  0  0  0
   -2.3580  -26.6897    3.6253 H   0  0  0  0  0  0
   -3.1728  -24.3844    4.5893 H   0  0  0  0  0  0
   -1.8647  -24.3188    3.4170 H   0  0  0  0  0  0
    2.3227  -21.9152    7.4345 H   0  0  0  0  0  0
    4.2151  -22.1392    8.9475 H   0  0  0  0  0  0
    4.0043  -26.5158   13.9026 H   0  0  0  0  0  0
    4.0350  -27.9701   15.8845 H   0  0  0  0  0  0
  1  2  1  0  0  0
  1 40  1  0  0  0
  1 41  1  0  0  0
  1 42  1  0  0  0
  2  3  1  0  0  0
  3 39  1  0  0  0
  3  4  2  0  0  0
  4  5  1  0  0  0
  4 43  1  0  0  0
  5  6  2  0  0  0
  5 44  1  0  0  0
  6  7  1  0  0  0
  6 38  1  0  0  0
  7  8  3  0  0  0
  8  9  1  0  0  0
  9 36  1  0  0  0
  9 10  2  0  0  0
 10 11  1  0  0  0
 10 45  1  0  0  0
 11 12  1  0  0  0
 11 34  2  0  0  0
 12 25  1  0  0  0
 12 13  2  0  0  0
 13 14  1  0  0  0
 14 15  1  0  0  0
 14 24  1  0  0  0
 15 16  1  0  0  0
 15 46  1  0  0  0
 15 47  1  0  0  0
 16 17  1  0  0  0
 16 48  1  0  0  0
 16 49  1  0  0  0
 17 18  1  0  0  0
 17 50  1  0  0  0
 17 51  1  0  0  0
 18 23  1  0  0  0
 18 19  1  0  0  0
 19 20  1  0  0  0
 19 52  1  0  0  0
 19 53  1  0  0  0
 20 21  1  0  0  0
 20 54  1  0  0  0
 20 55  1  0  0  0
 21 22  1  0  0  0
 22 23  1  0  0  0
 22 56  1  0  0  0
 22 57  1  0  0  0
 23 58  1  0  0  0
 23 59  1  0  0  0
 24 33  1  0  0  0
 24 25  2  0  0  0
 25 26  1  0  0  0
 26 27  1  0  0  0
 26 60  1  0  0  0
 26 61  1  0  0  0
 27 28  1  0  0  0
 27 32  1  0  0  0
 28 29  1  0  0  0
 28 30  2  0  0  0
 28 31  2  0  0  0
 29 62  1  0  0  0
 29 63  1  0  0  0
 29 64  1  0  0  0
 32 33  1  0  0  0
 32 65  1  0  0  0
 32 66  1  0  0  0
 33 67  1  0  0  0
 33 68  1  0  0  0
 34 35  1  0  0  0
 34 69  1  0  0  0
 35 36  2  0  0  0
 35 70  1  0  0  0
 36 37  1  0  0  0
 38 39  2  0  0  0
 38 71  1  0  0  0
 39 72  1  0  0  0
M  END
> <i_epik_Tot_Q>
0

> <i_epik_Tot_abs_Q>
0

> <i_i_glide_confnum>
44

> <i_i_glide_lignum>
35

> <i_i_glide_posenum>
332

> <i_i_glide_rotatable_bonds>
9

> <i_lp_mmshare_version>
51139

> <i_m_source_file_index>
18

> <i_f3d_flags>
0

> <b_lp_Chiralities_Consistent>
1

> <r_epik_Charging_Adjusted_Penalty>
0.195728

> <r_epik_Ionization_Penalty>
0.2059

> <r_epik_Ionization_Penalty_Charging>
0

> <r_epik_Ionization_Penalty_Neutral>
0.2059

> <r_epik_State_Penalty>
0.1957

> <r_i_docking_score>
-8.06528

> <r_i_glide_ecoul>
-4.95495

> <r_i_glide_eff_state_penalty>
0.195728

> <r_i_glide_einternal>
9.75985

> <r_i_glide_emodel>
-78.9071

> <r_i_glide_energy>
-56.3317

> <r_i_glide_erotb>
0.297091

> <r_i_glide_esite>
-0.00190478

> <r_i_glide_evdw>
-51.3767

> <r_i_glide_gscore>
-8.26101

> <r_i_glide_hbond>
-0.0489606

> <r_i_glide_ligand_efficiency>
-0.206802

> <r_i_glide_ligand_efficiency_ln>
-1.72942

> <r_i_glide_ligand_efficiency_sa>
-0.701309

> <r_i_glide_lipo>
-4.85716

> <r_i_glide_metal>
-0

> <r_i_glide_rewards>
-0.337989

> <r_lp_Energy>
49.8665

> <r_lp_tautomer_probability>
1

> <s_epik_cmdline>
J2VwaWtfcHl0aG9uJywgJy1waHQnLCAnMi4wJywgJy1waCcsICc3LjQnLCAnLXRuJywgJzgnLCAnLW1hJywgJzIwMCcsICctaW1hZScsICc8aW5maWxlLm1hZT4nLCAnLW9tYWUnLCAnPG91dGZpbGUubWFlPic=

> <s_epik_input>
W0NIM11PYzFbY0hdW2NIXWMoW2NIXVtjSF0xKUMjQ2MyW2NIXWMoW2NIXVtjSF1jMkNsKS1jKGMoYzM0KVtDSDJdTihTKD1PKSg9TylbQ0gzXSlbQ0gyXVtDSDJdNClubjNbQ0gyXVtDSDJdW0NIMl1ONVtDSDJdW0NIMl1PW0NIMl1bQ0gyXTU=

> <s_i_glide_gridfile>
Sries20631-001-gridgen

> <s_lp_Force_Field>
OPLS3e

> <s_lp_Variant>
lig17-1

> <s_m_source_file>
/home/user-home/yujie/0_PBCNetv2/data/0_0_high_sim/0_noncov/Sries20631/ligprep_input.csv

$$$$
