lig9
                    3D
 Schrodinger Suite 2023-4.
 71 75  0  0  1  0            999 V2000
    0.8777  -29.3659   11.8008 C   0  0  0  0  0  0
    1.7918  -28.9522   12.9492 C   0  0  0  0  0  0
    1.8324  -29.7549   14.0961 C   0  0  0  0  0  0
    2.6400  -29.4091   15.1783 C   0  0  0  0  0  0
    3.4202  -28.2565   15.1245 C   0  0  0  0  0  0
    3.3955  -27.4501   13.9871 C   0  0  0  0  0  0
    2.5879  -27.7889   12.8945 C   0  0  0  0  0  0
    2.5953  -26.9044   11.7331 C   0  0  0  0  0  0
    2.5934  -26.0970   10.8163 C   0  0  0  0  0  0
    2.5823  -25.0223    9.8312 C   0  0  0  0  0  0
    1.5174  -24.9409    8.9200 C   0  0  0  0  0  0
    1.4183  -23.8633    8.0279 C   0  0  0  0  0  0
    0.3264  -23.7735    7.0116 C   0  0  0  0  0  0
   -0.1846  -22.6046    6.6656 N   0  0  0  0  0  0
   -1.1258  -22.8656    5.7535 N   0  0  0  0  0  0
   -1.8774  -21.7611    5.1582 C   0  0  0  0  0  0
   -2.6505  -20.9279    6.2005 C   0  0  0  0  0  0
   -3.6907  -21.7334    7.0017 C   0  0  0  0  0  0
   -4.2154  -20.9582    8.1252 N   0  0  0  0  0  0
   -4.8889  -21.8330    9.0898 C   0  0  0  0  0  0
   -5.4195  -21.0222   10.2897 C   0  0  0  0  0  0
   -6.2999  -20.0009    9.8299 O   0  0  0  0  0  0
   -5.6643  -19.0952    8.9315 C   0  0  0  0  0  0
   -5.0907  -19.8482    7.7120 C   0  0  0  0  0  0
   -1.1844  -24.1977    5.4449 C   0  0  0  0  0  0
   -0.2146  -24.8156    6.2309 C   0  0  0  0  0  0
    0.0562  -26.3129    6.1258 C   0  0  0  0  0  0
   -0.5497  -26.8116    4.8564 N   0  0  2  0  0  0
   -0.0468  -28.4181    4.2988 S   0  0  0  0  0  0
   -0.6478  -29.5602    5.6659 C   0  0  0  0  0  0
   -0.7858  -28.7457    3.0755 O   0  0  0  0  0  0
    1.4174  -28.4591    4.3141 O   0  0  0  0  0  0
   -1.9736  -26.4285    4.6560 C   0  0  0  0  0  0
   -2.1245  -24.8959    4.4679 C   0  0  0  0  0  0
    2.3823  -22.8539    8.0840 C   0  0  0  0  0  0
    3.4664  -22.9569    8.9459 C   0  0  0  0  0  0
    3.5907  -24.0416    9.8098 C   0  0  0  0  0  0
    5.0092  -24.1222   10.8093 Cl  0  0  0  0  0  0
    0.1534  -28.5759   11.5944 H   0  0  0  0  0  0
    1.4598  -29.5267   10.8933 H   0  0  0  0  0  0
    0.3243  -30.2814   12.0175 H   0  0  0  0  0  0
    1.2252  -30.6464   14.1607 H   0  0  0  0  0  0
    2.6513  -30.0314   16.0614 H   0  0  0  0  0  0
    4.0417  -27.9822   15.9654 H   0  0  0  0  0  0
    4.0064  -26.5583   13.9621 H   0  0  0  0  0  0
    0.7505  -25.7039    8.9147 H   0  0  0  0  0  0
   -1.1768  -21.1191    4.6261 H   0  0  0  0  0  0
   -2.5643  -22.1712    4.4187 H   0  0  0  0  0  0
   -1.9690  -20.3920    6.8645 H   0  0  0  0  0  0
   -3.1701  -20.1557    5.6330 H   0  0  0  0  0  0
   -4.5060  -22.0528    6.3487 H   0  0  0  0  0  0
   -3.2293  -22.6560    7.3549 H   0  0  0  0  0  0
   -5.7027  -22.3743    8.6055 H   0  0  0  0  0  0
   -4.1833  -22.5879    9.4341 H   0  0  0  0  0  0
   -4.5929  -20.5938   10.8615 H   0  0  0  0  0  0
   -5.9667  -21.6781   10.9665 H   0  0  0  0  0  0
   -4.8768  -18.5331    9.4348 H   0  0  0  0  0  0
   -6.3992  -18.3621    8.5999 H   0  0  0  0  0  0
   -4.5353  -19.1471    7.0880 H   0  0  0  0  0  0
   -5.9045  -20.2276    7.0899 H   0  0  0  0  0  0
    1.1224  -26.5393    6.1257 H   0  0  0  0  0  0
   -0.4081  -26.8490    6.9546 H   0  0  0  0  0  0
   -0.4262  -30.5872    5.3771 H   0  0  0  0  0  0
   -0.1199  -29.3064    6.5836 H   0  0  0  0  0  0
   -1.7216  -29.4216    5.7912 H   0  0  0  0  0  0
   -2.5108  -26.7019    5.5649 H   0  0  0  0  0  0
   -2.3936  -26.9749    3.8113 H   0  0  0  0  0  0
   -3.1609  -24.5973    4.6214 H   0  0  0  0  0  0
   -1.8530  -24.6320    3.4476 H   0  0  0  0  0  0
    2.3151  -21.9959    7.4317 H   0  0  0  0  0  0
    4.2150  -22.1829    8.9357 H   0  0  0  0  0  0
  1  2  1  0  0  0
  1 39  1  0  0  0
  1 40  1  0  0  0
  1 41  1  0  0  0
  2  7  1  0  0  0
  2  3  2  0  0  0
  3  4  1  0  0  0
  3 42  1  0  0  0
  4  5  2  0  0  0
  4 43  1  0  0  0
  5  6  1  0  0  0
  5 44  1  0  0  0
  6  7  2  0  0  0
  6 45  1  0  0  0
  7  8  1  0  0  0
  8  9  3  0  0  0
  9 10  1  0  0  0
 10 37  1  0  0  0
 10 11  2  0  0  0
 11 12  1  0  0  0
 11 46  1  0  0  0
 12 13  1  0  0  0
 12 35  2  0  0  0
 13 26  1  0  0  0
 13 14  2  0  0  0
 14 15  1  0  0  0
 15 16  1  0  0  0
 15 25  1  0  0  0
 16 17  1  0  0  0
 16 47  1  0  0  0
 16 48  1  0  0  0
 17 18  1  0  0  0
 17 49  1  0  0  0
 17 50  1  0  0  0
 18 19  1  0  0  0
 18 51  1  0  0  0
 18 52  1  0  0  0
 19 24  1  0  0  0
 19 20  1  0  0  0
 20 21  1  0  0  0
 20 53  1  0  0  0
 20 54  1  0  0  0
 21 22  1  0  0  0
 21 55  1  0  0  0
 21 56  1  0  0  0
 22 23  1  0  0  0
 23 24  1  0  0  0
 23 57  1  0  0  0
 23 58  1  0  0  0
 24 59  1  0  0  0
 24 60  1  0  0  0
 25 34  1  0  0  0
 25 26  2  0  0  0
 26 27  1  0  0  0
 27 28  1  0  0  0
 27 61  1  0  0  0
 27 62  1  0  0  0
 28 29  1  0  0  0
 28 33  1  0  0  0
 29 30  1  0  0  0
 29 31  2  0  0  0
 29 32  2  0  0  0
 30 63  1  0  0  0
 30 64  1  0  0  0
 30 65  1  0  0  0
 33 34  1  0  0  0
 33 66  1  0  0  0
 33 67  1  0  0  0
 34 68  1  0  0  0
 34 69  1  0  0  0
 35 36  1  0  0  0
 35 70  1  0  0  0
 36 37  2  0  0  0
 36 71  1  0  0  0
 37 38  1  0  0  0
M  END
> <i_epik_Tot_Q>
0

> <i_epik_Tot_abs_Q>
0

> <i_i_glide_confnum>
9

> <i_i_glide_lignum>
19

> <i_i_glide_posenum>
5

> <i_i_glide_rotatable_bonds>
8

> <i_lp_mmshare_version>
51139

> <i_m_source_file_index>
10

> <i_f3d_flags>
0

> <b_lp_Chiralities_Consistent>
1

> <r_epik_Charging_Adjusted_Penalty>
0.195728

> <r_epik_Ionization_Penalty>
0.2059

> <r_epik_Ionization_Penalty_Charging>
0

> <r_epik_Ionization_Penalty_Neutral>
0.2059

> <r_epik_State_Penalty>
0.1957

> <r_i_docking_score>
-7.41991

> <r_i_glide_ecoul>
-2.77332

> <r_i_glide_eff_state_penalty>
0.195728

> <r_i_glide_einternal>
4.40283

> <r_i_glide_emodel>
-74.4494

> <r_i_glide_energy>
-51.4418

> <r_i_glide_erotb>
0.334875

> <r_i_glide_esite>
-0.000986937

> <r_i_glide_evdw>
-48.6685

> <r_i_glide_gscore>
-7.61564

> <r_i_glide_hbond>
0

> <r_i_glide_ligand_efficiency>
-0.195261

> <r_i_glide_ligand_efficiency_ln>
-1.59995

> <r_i_glide_ligand_efficiency_sa>
-0.656462

> <r_i_glide_lipo>
-4.79673

> <r_i_glide_metal>
-0

> <r_i_glide_rewards>
-0.303368

> <r_lp_Energy>
47.2035

> <r_lp_tautomer_probability>
1

> <s_epik_cmdline>
J2VwaWtfcHl0aG9uJywgJy1waHQnLCAnMi4wJywgJy1waCcsICc3LjQnLCAnLXRuJywgJzgnLCAnLW1hJywgJzIwMCcsICctaW1hZScsICc8aW5maWxlLm1hZT4nLCAnLW9tYWUnLCAnPG91dGZpbGUubWFlPic=

> <s_epik_input>
W0NIM11jMVtjSF1bY0hdW2NIXVtjSF1jMUMjQ2MyW2NIXWMoW2NIXVtjSF1jMkNsKS1jKGMoYzM0KVtDSDJdTihTKD1PKSg9TylbQ0gzXSlbQ0gyXVtDSDJdNClubjNbQ0gyXVtDSDJdW0NIMl1ONVtDSDJdW0NIMl1PW0NIMl1bQ0gyXTU=

> <s_i_glide_gridfile>
Sries20631-001-gridgen

> <s_lp_Force_Field>
OPLS3e

> <s_lp_Variant>
lig9-1

> <s_m_source_file>
/home/user-home/yujie/0_PBCNetv2/data/0_0_high_sim/0_noncov/Sries20631/ligprep_input.csv

$$$$
