lig3
                    3D
 Schrodinger Suite 2020-3.
 74 78  0  0  1  0            999 V2000
    0.8199  -27.9335    3.9673 C   0  0  0  0  0  0
   -0.9586  -27.5510    4.4582 S   0  0  0  0  0  0
   -1.3037  -28.4117    5.5940 O   0  0  0  0  0  0
   -1.7776  -27.5701    3.2429 O   0  0  0  0  0  0
   -0.8855  -25.8830    5.0524 N   0  0  1  0  0  0
   -2.1027  -25.0340    4.8920 C   0  0  0  0  0  0
   -1.7757  -23.5149    4.8927 C   0  0  0  0  0  0
   -0.6564  -23.2473    5.8929 C   0  0  0  0  0  0
    0.0801  -24.2149    6.5634 C   0  0  0  0  0  0
    0.9044  -23.4947    7.4419 C   0  0  0  0  0  0
    1.7849  -24.0336    8.5301 C   0  0  0  0  0  0
    2.9188  -23.3360    8.9678 C   0  0  0  0  0  0
    3.6644  -23.8050   10.0498 C   0  0  0  0  0  0
    3.2887  -24.9711   10.7159 C   0  0  0  0  0  0
    4.2155  -25.4617   12.0948 Cl  0  0  0  0  0  0
    2.1689  -25.6931   10.2756 C   0  0  0  0  0  0
    1.7346  -26.9187   10.9334 C   0  0  0  0  0  0
    1.3762  -27.9356   11.5078 C   0  0  0  0  0  0
    0.9534  -29.1807   12.1925 C   0  0  0  0  0  0
   -0.5934  -29.2954   12.2651 C   0  0  0  0  0  0
   -1.2414  -29.5245   10.8746 C   0  0  0  0  0  0
   -0.6203  -30.7355   10.1431 C   0  0  0  0  0  0
    0.9232  -30.6759   10.0902 C   0  0  0  0  0  0
    1.5294  -30.4406   11.4947 C   0  0  0  0  0  0
    1.4281  -25.2187    9.1902 C   0  0  0  0  0  0
    0.7599  -22.1941    7.2861 N   0  0  0  0  0  0
   -0.2013  -22.0412    6.3692 N   0  0  0  0  0  0
   -0.5881  -20.6856    5.9798 C   0  0  0  0  0  0
   -1.4801  -19.9798    7.0182 C   0  0  0  0  0  0
   -2.8686  -20.6310    7.1745 C   0  0  0  0  0  0
   -3.7554  -19.8915    8.0785 N   0  0  0  0  0  0
   -4.9353  -20.7188    8.3754 C   0  0  0  0  0  0
   -5.9722  -19.9677    9.2356 C   0  0  0  0  0  0
   -6.3219  -18.7297    8.6287 O   0  0  0  0  0  0
   -5.1920  -17.8783    8.4613 C   0  0  0  0  0  0
   -4.1426  -18.5661    7.5579 C   0  0  0  0  0  0
   -0.1548  -25.7005    6.3318 C   0  0  0  0  0  0
    0.8455  -28.9304    3.5324 H   0  0  0  0  0  0
    1.1441  -27.1927    3.2382 H   0  0  0  0  0  0
    1.4473  -27.9017    4.8565 H   0  0  0  0  0  0
   -2.7266  -25.2070    5.7707 H   0  0  0  0  0  0
   -2.6396  -25.3226    3.9871 H   0  0  0  0  0  0
   -2.6671  -22.9293    5.1244 H   0  0  0  0  0  0
   -1.4559  -23.2274    3.8936 H   0  0  0  0  0  0
    3.2116  -22.4150    8.4843 H   0  0  0  0  0  0
    4.5273  -23.2506   10.3910 H   0  0  0  0  0  0
    1.3426  -29.1390   13.2115 H   0  0  0  0  0  0
   -1.0331  -28.4194   12.7467 H   0  0  0  0  0  0
   -0.8554  -30.1541   12.8876 H   0  0  0  0  0  0
   -1.1229  -28.6292   10.2631 H   0  0  0  0  0  0
   -2.3168  -29.6681   10.9861 H   0  0  0  0  0  0
   -1.0262  -30.8059    9.1333 H   0  0  0  0  0  0
   -0.9247  -31.6502   10.6526 H   0  0  0  0  0  0
    1.2341  -29.8814    9.4111 H   0  0  0  0  0  0
    1.3170  -31.5972    9.6606 H   0  0  0  0  0  0
    1.2931  -31.3154   12.1010 H   0  0  0  0  0  0
    2.6173  -30.3890   11.4341 H   0  0  0  0  0  0
    0.5443  -25.7600    8.8876 H   0  0  0  0  0  0
    0.3198  -20.1027    5.8329 H   0  0  0  0  0  0
   -1.0892  -20.7364    5.0129 H   0  0  0  0  0  0
   -0.9712  -19.9749    7.9828 H   0  0  0  0  0  0
   -1.5716  -18.9396    6.7059 H   0  0  0  0  0  0
   -3.3353  -20.7664    6.1976 H   0  0  0  0  0  0
   -2.7176  -21.6433    7.5631 H   0  0  0  0  0  0
   -5.4062  -21.0363    7.4438 H   0  0  0  0  0  0
   -4.6189  -21.6333    8.8822 H   0  0  0  0  0  0
   -5.5800  -19.7911   10.2345 H   0  0  0  0  0  0
   -6.8702  -20.5744    9.3472 H   0  0  0  0  0  0
   -4.7631  -17.6150    9.4322 H   0  0  0  0  0  0
   -5.5205  -16.9473    8.0053 H   0  0  0  0  0  0
   -3.2758  -17.9155    7.4575 H   0  0  0  0  0  0
   -4.5492  -18.6728    6.5514 H   0  0  0  0  0  0
    0.7840  -26.2566    6.3006 H   0  0  0  0  0  0
   -0.7776  -26.1251    7.1196 H   0  0  0  0  0  0
  1  2  1  0  0  0
  1 38  1  0  0  0
  1 39  1  0  0  0
  1 40  1  0  0  0
  2  3  2  0  0  0
  2  4  2  0  0  0
  2  5  1  0  0  0
  5 37  1  0  0  0
  5  6  1  0  0  0
  6  7  1  0  0  0
  6 41  1  0  0  0
  6 42  1  0  0  0
  7  8  1  0  0  0
  7 43  1  0  0  0
  7 44  1  0  0  0
  8 27  1  0  0  0
  8  9  2  0  0  0
  9 10  1  0  0  0
  9 37  1  0  0  0
 10 11  1  0  0  0
 10 26  2  0  0  0
 11 25  1  0  0  0
 11 12  2  0  0  0
 12 13  1  0  0  0
 12 45  1  0  0  0
 13 14  2  0  0  0
 13 46  1  0  0  0
 14 15  1  0  0  0
 14 16  1  0  0  0
 16 17  1  0  0  0
 16 25  2  0  0  0
 17 18  3  0  0  0
 18 19  1  0  0  0
 19 24  1  0  0  0
 19 20  1  0  0  0
 19 47  1  0  0  0
 20 21  1  0  0  0
 20 48  1  0  0  0
 20 49  1  0  0  0
 21 22  1  0  0  0
 21 50  1  0  0  0
 21 51  1  0  0  0
 22 23  1  0  0  0
 22 52  1  0  0  0
 22 53  1  0  0  0
 23 24  1  0  0  0
 23 54  1  0  0  0
 23 55  1  0  0  0
 24 56  1  0  0  0
 24 57  1  0  0  0
 25 58  1  0  0  0
 26 27  1  0  0  0
 27 28  1  0  0  0
 28 29  1  0  0  0
 28 59  1  0  0  0
 28 60  1  0  0  0
 29 30  1  0  0  0
 29 61  1  0  0  0
 29 62  1  0  0  0
 30 31  1  0  0  0
 30 63  1  0  0  0
 30 64  1  0  0  0
 31 36  1  0  0  0
 31 32  1  0  0  0
 32 33  1  0  0  0
 32 65  1  0  0  0
 32 66  1  0  0  0
 33 34  1  0  0  0
 33 67  1  0  0  0
 33 68  1  0  0  0
 34 35  1  0  0  0
 35 36  1  0  0  0
 35 69  1  0  0  0
 35 70  1  0  0  0
 36 71  1  0  0  0
 36 72  1  0  0  0
 37 73  1  0  0  0
 37 74  1  0  0  0
M  END
> <s_m_source_file>
/home/user-home/yujie/0_PBCNetv2/data/0_0_high_sim/0_noncov/Sries20631/ligprep_input.csv

> <i_m_source_file_index>
4

> <i_lp_mmshare_version>
51139

> <i_f3d_flags>
0

> <s_epik_input>
W0NIMl0xW0NIMl1PW0NIMl1bQ0gyXU4xW0NIMl1bQ0gyXVtDSDJdbjJuYyhjKGMyMylbQ0gyXU4oUyg9TykoPU8pW0NIM10pW0NIMl1bQ0gyXTMpLWM0W2NIXVtjSF1jKENsKWMoW2NIXTQpQyNDW0NIXTVbQ0gyXVtDSDJdW0NIMl1bQ0gyXVtDSDJdNQ==

> <s_epik_cmdline>
J2VwaWtfcHl0aG9uJywgJy1waHQnLCAnMi4wJywgJy1waCcsICc3LjQnLCAnLXRuJywgJzgnLCAnLW1hJywgJzIwMCcsICctaW1hZScsICc8aW5maWxlLm1hZT4nLCAnLW9tYWUnLCAnPG91dGZpbGUubWFlPic=

> <r_lp_tautomer_probability>
1

> <r_epik_Ionization_Penalty>
  0.2059

> <r_epik_Ionization_Penalty_Charging>
  0.0000

> <r_epik_Ionization_Penalty_Neutral>
  0.2059

> <r_epik_State_Penalty>
  0.1957

> <r_epik_Charging_Adjusted_Penalty>
0.195728

> <i_epik_Tot_Q>
0

> <i_epik_Tot_abs_Q>
0

> <s_lp_Force_Field>
OPLS3e

> <r_lp_Energy>
41.8826

> <b_lp_Chiralities_Consistent>
1

> <s_lp_Variant>
lig3-1

> <s_i_glide_gridfile>
Sries20631-001-gridgen

> <i_i_glide_lignum>
7

> <i_i_glide_rotatable_bonds>
8

> <r_i_docking_score>
-5.23924604171721

> <r_i_glide_ligand_efficiency>
-0.141601244370735

> <r_i_glide_ligand_efficiency_sa>
-0.47184676014449

> <r_i_glide_ligand_efficiency_ln>
-1.13626964109466

> <r_i_glide_gscore>
-5.43497404171721

> <r_i_glide_lipo>
-3.50372225209912

> <r_i_glide_hbond>
0

> <r_i_glide_metal>
-0

> <r_i_glide_rewards>
-0.295854945205728

> <r_i_glide_evdw>
-40.4753379821777

> <r_i_glide_ecoul>
-0.197425976395607

> <r_i_glide_erotb>
0.417983951155865

> <r_i_glide_esite>
0

> <r_i_glide_emodel>
-54.5706998453205

> <r_i_glide_energy>
-40.6727639585733

> <r_i_glide_einternal>
6.37778806686401

> <i_i_glide_confnum>
63

> <i_i_glide_posenum>
78

> <r_i_glide_eff_state_penalty>
0.195728

$$$$
