lig20
                    3D
 Schrodinger Suite 2020-3.
 69 73  0  0  1  0            999 V2000
    0.8553  -28.8762    4.6334 C   0  0  0  0  0  0
   -0.9228  -28.6672    5.1970 S   0  0  0  0  0  0
   -1.0504  -29.2764    6.5259 O   0  0  0  0  0  0
   -1.8004  -29.0976    4.1025 O   0  0  0  0  0  0
   -1.0982  -26.9152    5.3959 N   0  0  1  0  0  0
   -2.4386  -26.3237    5.1143 C   0  0  0  0  0  0
   -2.3574  -24.8217    4.7339 C   0  0  0  0  0  0
   -1.3166  -24.1478    5.6201 C   0  0  0  0  0  0
   -0.4076  -24.7980    6.4458 C   0  0  0  0  0  0
    0.3044  -23.7617    7.0807 C   0  0  0  0  0  0
    1.4160  -23.8784    8.0782 C   0  0  0  0  0  0
    2.4127  -22.9001    8.1176 C   0  0  0  0  0  0
    3.4566  -22.9879    9.0283 C   0  0  0  0  0  0
    3.5165  -24.0383    9.9401 C   0  0  0  0  0  0
    4.8581  -24.0820   11.0347 Cl  0  0  0  0  0  0
    2.5015  -25.0087    9.9477 C   0  0  0  0  0  0
    2.4788  -26.0748   10.9451 C   0  0  0  0  0  0
    2.4786  -26.9074   11.8371 C   0  0  0  0  0  0
    2.4739  -27.8747   12.9251 C   0  0  0  0  0  0
    1.5304  -28.9040   12.9358 C   0  0  0  0  0  0
    1.5284  -29.8424   13.9672 C   0  0  0  0  0  0
    2.4682  -29.7600   14.9949 C   0  0  0  0  0  0
    2.4148  -30.9280   16.2686 Cl  0  0  0  0  0  0
    3.4199  -28.7308   14.9870 C   0  0  0  0  0  0
    4.6148  -28.6093   16.2345 Cl  0  0  0  0  0  0
    3.4159  -27.7876   13.9558 C   0  0  0  0  0  0
    1.4678  -24.9309    9.0045 C   0  0  0  0  0  0
   -0.1129  -22.5782    6.6728 N   0  0  0  0  0  0
   -1.1223  -22.8069    5.8274 N   0  0  0  0  0  0
   -1.7418  -21.6812    5.1327 C   0  0  0  0  0  0
   -2.3169  -20.5934    6.0575 C   0  0  0  0  0  0
   -3.6609  -20.9766    6.6965 C   0  0  0  0  0  0
   -4.2358  -19.8238    7.5580 N   0  3  0  0  0  0
   -5.5786  -20.2854    8.1774 C   0  0  0  0  0  0
   -6.1875  -19.1260    8.9834 C   0  0  0  0  0  0
   -6.3385  -17.9740    8.1619 O   0  0  0  0  0  0
   -5.1124  -17.4517    7.6601 C   0  0  0  0  0  0
   -4.4136  -18.4957    6.7681 C   0  0  0  0  0  0
   -0.3621  -26.3166    6.5456 C   0  0  0  0  0  0
    1.0229  -29.9320    4.4282 H   0  0  0  0  0  0
    1.0086  -28.2820    3.7344 H   0  0  0  0  0  0
    1.5150  -28.5423    5.4347 H   0  0  0  0  0  0
   -3.0073  -26.3718    6.0458 H   0  0  0  0  0  0
   -2.9439  -26.8960    4.3363 H   0  0  0  0  0  0
   -3.3368  -24.3530    4.8321 H   0  0  0  0  0  0
   -2.0588  -24.7325    3.6892 H   0  0  0  0  0  0
    2.3898  -22.0654    7.4348 H   0  0  0  0  0  0
    4.2157  -22.2238    9.0269 H   0  0  0  0  0  0
    0.7920  -28.9827   12.1482 H   0  0  0  0  0  0
    0.7851  -30.6270   13.9760 H   0  0  0  0  0  0
    4.1549  -26.9985   13.9581 H   0  0  0  0  0  0
    0.6849  -25.6739    9.0104 H   0  0  0  0  0  0
   -0.9860  -21.2185    4.5109 H   0  0  0  0  0  0
   -2.5063  -22.0593    4.4520 H   0  0  0  0  0  0
   -1.5919  -20.3163    6.8253 H   0  0  0  0  0  0
   -2.4377  -19.7093    5.4319 H   0  0  0  0  0  0
   -4.4161  -21.2062    5.9403 H   0  0  0  0  0  0
   -3.5474  -21.8324    7.3678 H   0  0  0  0  0  0
   -6.2354  -20.5969    7.3618 H   0  0  0  0  0  0
   -5.3603  -21.1462    8.8137 H   0  0  0  0  0  0
   -5.5568  -18.8847    9.8351 H   0  0  0  0  0  0
   -7.1644  -19.4062    9.3800 H   0  0  0  0  0  0
   -4.4645  -17.1409    8.4830 H   0  0  0  0  0  0
   -5.3259  -16.5524    7.0814 H   0  0  0  0  0  0
   -3.4275  -18.1240    6.4816 H   0  0  0  0  0  0
   -4.9909  -18.7203    5.8682 H   0  0  0  0  0  0
    0.6587  -26.7014    6.5605 H   0  0  0  0  0  0
   -0.8665  -26.6494    7.4543 H   0  0  0  0  0  0
   -3.6009  -19.6404    8.3270 H   0  0  0  0  0  0
  1  2  1  0  0  0
  1 40  1  0  0  0
  1 41  1  0  0  0
  1 42  1  0  0  0
  2  3  2  0  0  0
  2  4  2  0  0  0
  2  5  1  0  0  0
  5 39  1  0  0  0
  5  6  1  0  0  0
  6  7  1  0  0  0
  6 43  1  0  0  0
  6 44  1  0  0  0
  7  8  1  0  0  0
  7 45  1  0  0  0
  7 46  1  0  0  0
  8 29  1  0  0  0
  8  9  2  0  0  0
  9 10  1  0  0  0
  9 39  1  0  0  0
 10 11  1  0  0  0
 10 28  2  0  0  0
 11 27  1  0  0  0
 11 12  2  0  0  0
 12 13  1  0  0  0
 12 47  1  0  0  0
 13 14  2  0  0  0
 13 48  1  0  0  0
 14 15  1  0  0  0
 14 16  1  0  0  0
 16 17  1  0  0  0
 16 27  2  0  0  0
 17 18  3  0  0  0
 18 19  1  0  0  0
 19 26  1  0  0  0
 19 20  2  0  0  0
 20 21  1  0  0  0
 20 49  1  0  0  0
 21 22  2  0  0  0
 21 50  1  0  0  0
 22 23  1  0  0  0
 22 24  1  0  0  0
 24 25  1  0  0  0
 24 26  2  0  0  0
 26 51  1  0  0  0
 27 52  1  0  0  0
 28 29  1  0  0  0
 29 30  1  0  0  0
 30 31  1  0  0  0
 30 53  1  0  0  0
 30 54  1  0  0  0
 31 32  1  0  0  0
 31 55  1  0  0  0
 31 56  1  0  0  0
 32 33  1  0  0  0
 32 57  1  0  0  0
 32 58  1  0  0  0
 33 38  1  0  0  0
 33 34  1  0  0  0
 33 69  1  0  0  0
 34 35  1  0  0  0
 34 59  1  0  0  0
 34 60  1  0  0  0
 35 36  1  0  0  0
 35 61  1  0  0  0
 35 62  1  0  0  0
 36 37  1  0  0  0
 37 38  1  0  0  0
 37 63  1  0  0  0
 37 64  1  0  0  0
 38 65  1  0  0  0
 38 66  1  0  0  0
 39 67  1  0  0  0
 39 68  1  0  0  0
M  CHG  1  33   1
M  END
> <s_m_source_file>
/home/user-home/yujie/0_PBCNetv2/data/0_0_high_sim/0_noncov/Sries20631/ligprep_input.csv

> <i_m_source_file_index>
21

> <i_lp_mmshare_version>
51139

> <i_f3d_flags>
0

> <s_epik_input>
W0NIMl0xW0NIMl1PW0NIMl1bQ0gyXU4xW0NIMl1bQ0gyXVtDSDJdbjJuYyhjKGMyMylbQ0gyXU4oUyg9TykoPU8pW0NIM10pW0NIMl1bQ0gyXTMpLWM0W2NIXVtjSF1jKENsKWMoW2NIXTQpQyNDYzVbY0hdW2NIXWMoQ2wpYyhDbClbY0hdNQ==

> <s_epik_cmdline>
J2VwaWtfcHl0aG9uJywgJy1waHQnLCAnMi4wJywgJy1waCcsICc3LjQnLCAnLXRuJywgJzgnLCAnLW1hJywgJzIwMCcsICctaW1hZScsICc8aW5maWxlLm1hZT4nLCAnLW9tYWUnLCAnPG91dGZpbGUubWFlPic=

> <r_lp_tautomer_probability>
1

> <r_epik_Ionization_Penalty>
  0.7265

> <r_epik_Ionization_Penalty_Charging>
  0.7265

> <r_epik_Ionization_Penalty_Neutral>
  0.0000

> <r_epik_State_Penalty>
  0.7514

> <r_epik_Charging_Adjusted_Penalty>
1.47793

> <i_epik_Tot_Q>
1

> <i_epik_Tot_abs_Q>
1

> <s_lp_Force_Field>
OPLS3e

> <r_lp_Energy>
49.4234

> <b_lp_Chiralities_Consistent>
1

> <s_lp_Variant>
lig20-2

> <s_i_glide_gridfile>
Sries20631-001-gridgen

> <i_i_glide_lignum>
42

> <i_i_glide_rotatable_bonds>
8

> <r_i_docking_score>
-6.26620575156387

> <r_i_glide_ligand_efficiency>
-0.160671942347792

> <r_i_glide_ligand_efficiency_sa>
-0.544872528795752

> <r_i_glide_ligand_efficiency_ln>
-1.34365238996343

> <r_i_glide_gscore>
-7.01761575156387

> <r_i_glide_lipo>
-4.57023659269849

> <r_i_glide_hbond>
0

> <r_i_glide_metal>
-0

> <r_i_glide_rewards>
-0.211498161865772

> <r_i_glide_evdw>
-44.5583381652832

> <r_i_glide_ecoul>
-1.49827349185944

> <r_i_glide_erotb>
0.216776935043469

> <r_i_glide_esite>
0

> <r_i_glide_emodel>
-66.1053410917204

> <r_i_glide_energy>
-46.0566116571426

> <r_i_glide_einternal>
5.97344446182251

> <i_i_glide_confnum>
8

> <i_i_glide_posenum>
189

> <r_i_glide_eff_state_penalty>
0.75141

$$$$
