lig5
                    3D
 Schrodinger Suite 2020-3.
 66 70  0  0  1  0            999 V2000
    0.9793  -30.1247    5.0646 C   0  0  0  0  0  0
   -0.4539  -29.8773    6.2477 S   0  0  0  0  0  0
    0.0066  -30.2579    7.5869 O   0  0  0  0  0  0
   -1.6226  -30.5238    5.6403 O   0  0  0  0  0  0
   -0.6764  -28.1187    6.2018 N   0  0  1  0  0  0
   -2.0259  -27.5952    5.8470 C   0  0  0  0  0  0
   -1.9510  -26.1861    5.2093 C   0  0  0  0  0  0
   -0.9422  -25.3543    5.9946 C   0  0  0  0  0  0
   -0.0265  -25.8395    6.9197 C   0  0  0  0  0  0
    0.6069  -24.6846    7.4350 C   0  0  0  0  0  0
    1.6166  -24.5877    8.5352 C   0  0  0  0  0  0
    2.5088  -23.5102    8.5974 C   0  0  0  0  0  0
    3.4309  -23.4183    9.6350 C   0  0  0  0  0  0
    3.4715  -24.3842   10.6383 C   0  0  0  0  0  0
    4.6155  -24.1860   11.9185 Cl  0  0  0  0  0  0
    2.5860  -25.4721   10.5905 C   0  0  0  0  0  0
    2.5829  -26.5072   11.6184 C   0  0  0  0  0  0
    2.5927  -27.3371   12.5131 C   0  0  0  0  0  0
    2.6164  -28.2904   13.6056 C   0  0  0  0  0  0
    3.3218  -28.2052   14.7999 C   0  0  0  0  0  0
    3.1020  -29.3059   15.6370 C   0  0  0  0  0  0
    2.2311  -30.2323   15.0803 C   0  0  0  0  0  0
    1.6899  -29.7531   13.5032 S   0  0  0  0  0  0
    1.6680  -25.5644    9.5396 C   0  0  0  0  0  0
    0.1707  -23.5958    6.8280 N   0  0  0  0  0  0
   -0.8256  -23.9900    6.0238 N   0  0  0  0  0  0
   -1.5277  -23.0319    5.1684 C   0  0  0  0  0  0
   -1.7028  -21.6069    5.7481 C   0  0  0  0  0  0
   -2.8316  -21.5149    6.7899 C   0  0  0  0  0  0
   -3.0381  -20.0762    7.3350 N   0  3  0  0  0  0
   -4.2666  -20.0883    8.2795 C   0  0  0  0  0  0
   -4.5703  -18.6595    8.7680 C   0  0  0  0  0  0
   -4.7306  -17.7747    7.6662 O   0  0  0  0  0  0
   -3.5708  -17.6460    6.8466 C   0  0  0  0  0  0
   -3.1937  -19.0038    6.2210 C   0  0  0  0  0  0
    0.0658  -27.3328    7.2297 C   0  0  0  0  0  0
    1.2301  -31.1825    5.0362 H   0  0  0  0  0  0
    0.6807  -29.7762    4.0778 H   0  0  0  0  0  0
    1.8164  -29.5414    5.4337 H   0  0  0  0  0  0
   -2.5842  -27.4936    6.7784 H   0  0  0  0  0  0
   -2.5356  -28.2950    5.1862 H   0  0  0  0  0  0
   -2.9389  -25.7288    5.1899 H   0  0  0  0  0  0
   -1.6181  -26.2789    4.1764 H   0  0  0  0  0  0
    2.4929  -22.7420    7.8373 H   0  0  0  0  0  0
    4.1158  -22.5879    9.6608 H   0  0  0  0  0  0
    3.9669  -27.3780   15.0582 H   0  0  0  0  0  0
    3.5508  -29.4156   16.6144 H   0  0  0  0  0  0
    1.8830  -31.1615   15.5125 H   0  0  0  0  0  0
    0.9723  -26.3902    9.5248 H   0  0  0  0  0  0
   -0.9841  -22.9919    4.2346 H   0  0  0  0  0  0
   -2.5047  -23.4438    4.9140 H   0  0  0  0  0  0
   -0.7646  -21.2257    6.1561 H   0  0  0  0  0  0
   -1.9302  -20.9628    4.8987 H   0  0  0  0  0  0
   -3.7880  -21.8180    6.3572 H   0  0  0  0  0  0
   -2.6177  -22.1387    7.6613 H   0  0  0  0  0  0
   -5.1129  -20.4931    7.7204 H   0  0  0  0  0  0
   -4.0329  -20.7568    9.1104 H   0  0  0  0  0  0
   -3.7858  -18.2984    9.4345 H   0  0  0  0  0  0
   -5.4917  -18.6501    9.3516 H   0  0  0  0  0  0
   -2.7380  -17.2201    7.4117 H   0  0  0  0  0  0
   -3.7836  -16.9251    6.0548 H   0  0  0  0  0  0
   -2.2392  -18.9114    5.7021 H   0  0  0  0  0  0
   -3.9552  -19.3605    5.5268 H   0  0  0  0  0  0
    1.0927  -27.6881    7.2673 H   0  0  0  0  0  0
   -0.4068  -27.5498    8.1883 H   0  0  0  0  0  0
   -2.2292  -19.8218    7.8862 H   0  0  0  0  0  0
  1  2  1  0  0  0
  1 37  1  0  0  0
  1 38  1  0  0  0
  1 39  1  0  0  0
  2  3  2  0  0  0
  2  4  2  0  0  0
  2  5  1  0  0  0
  5 36  1  0  0  0
  5  6  1  0  0  0
  6  7  1  0  0  0
  6 40  1  0  0  0
  6 41  1  0  0  0
  7  8  1  0  0  0
  7 42  1  0  0  0
  7 43  1  0  0  0
  8 26  1  0  0  0
  8  9  2  0  0  0
  9 10  1  0  0  0
  9 36  1  0  0  0
 10 11  1  0  0  0
 10 25  2  0  0  0
 11 24  1  0  0  0
 11 12  2  0  0  0
 12 13  1  0  0  0
 12 44  1  0  0  0
 13 14  2  0  0  0
 13 45  1  0  0  0
 14 15  1  0  0  0
 14 16  1  0  0  0
 16 17  1  0  0  0
 16 24  2  0  0  0
 17 18  3  0  0  0
 18 19  1  0  0  0
 19 23  1  0  0  0
 19 20  2  0  0  0
 20 21  1  0  0  0
 20 46  1  0  0  0
 21 22  2  0  0  0
 21 47  1  0  0  0
 22 23  1  0  0  0
 22 48  1  0  0  0
 24 49  1  0  0  0
 25 26  1  0  0  0
 26 27  1  0  0  0
 27 28  1  0  0  0
 27 50  1  0  0  0
 27 51  1  0  0  0
 28 29  1  0  0  0
 28 52  1  0  0  0
 28 53  1  0  0  0
 29 30  1  0  0  0
 29 54  1  0  0  0
 29 55  1  0  0  0
 30 35  1  0  0  0
 30 31  1  0  0  0
 30 66  1  0  0  0
 31 32  1  0  0  0
 31 56  1  0  0  0
 31 57  1  0  0  0
 32 33  1  0  0  0
 32 58  1  0  0  0
 32 59  1  0  0  0
 33 34  1  0  0  0
 34 35  1  0  0  0
 34 60  1  0  0  0
 34 61  1  0  0  0
 35 62  1  0  0  0
 35 63  1  0  0  0
 36 64  1  0  0  0
 36 65  1  0  0  0
M  CHG  1  30   1
M  END
> <s_m_source_file>
/home/user-home/yujie/0_PBCNetv2/data/0_0_high_sim/0_noncov/Sries20631/ligprep_input.csv

> <i_m_source_file_index>
6

> <i_lp_mmshare_version>
51139

> <i_f3d_flags>
0

> <s_epik_input>
W0NIMl0xW0NIMl1PW0NIMl1bQ0gyXU4xW0NIMl1bQ0gyXVtDSDJdbjJuYyhjKGMyMylbQ0gyXU4oUyg9TykoPU8pW0NIM10pW0NIMl1bQ0gyXTMpLWM0W2NIXVtjSF1jKENsKWMoW2NIXTQpQyNDYzVbY0hdW2NIXVtjSF1zNQ==

> <s_epik_cmdline>
J2VwaWtfcHl0aG9uJywgJy1waHQnLCAnMi4wJywgJy1waCcsICc3LjQnLCAnLXRuJywgJzgnLCAnLW1hJywgJzIwMCcsICctaW1hZScsICc8aW5maWxlLm1hZT4nLCAnLW9tYWUnLCAnPG91dGZpbGUubWFlPic=

> <r_lp_tautomer_probability>
1

> <r_epik_Ionization_Penalty>
  0.7265

> <r_epik_Ionization_Penalty_Charging>
  0.7265

> <r_epik_Ionization_Penalty_Neutral>
  0.0000

> <r_epik_State_Penalty>
  0.7514

> <r_epik_Charging_Adjusted_Penalty>
1.47793

> <i_epik_Tot_Q>
1

> <i_epik_Tot_abs_Q>
1

> <s_lp_Force_Field>
OPLS3e

> <r_lp_Energy>
41.5426

> <b_lp_Chiralities_Consistent>
1

> <s_lp_Variant>
lig5-2

> <s_i_glide_gridfile>
Sries20631-001-gridgen

> <i_i_glide_lignum>
12

> <i_i_glide_rotatable_bonds>
8

> <r_i_docking_score>
-5.43959836157416

> <r_i_glide_ligand_efficiency>
-0.151099954488171

> <r_i_glide_ligand_efficiency_sa>
-0.498921056435266

> <r_i_glide_ligand_efficiency_ln>
-1.18677340153118

> <r_i_glide_gscore>
-6.19100836157416

> <r_i_glide_lipo>
-3.96809251900066

> <r_i_glide_hbond>
0

> <r_i_glide_metal>
-0

> <r_i_glide_rewards>
-0.151664013707473

> <r_i_glide_evdw>
-42.6843757629395

> <r_i_glide_ecoul>
-2.29524278640747

> <r_i_glide_erotb>
0.416588347229395

> <r_i_glide_esite>
-0.00933496998733048

> <r_i_glide_emodel>
-61.681193837948

> <r_i_glide_energy>
-44.9796185493469

> <r_i_glide_einternal>
6.29024314880371

> <i_i_glide_confnum>
9

> <i_i_glide_posenum>
184

> <r_i_glide_eff_state_penalty>
0.75141

$$$$
