lig8
                    3D
 Schrodinger Suite 2020-3.
 68 72  0  0  1  0            999 V2000
   -3.3862  -26.5083    6.9575 C   0  0  0  0  0  0
   -2.3855  -27.8970    6.1705 S   0  0  0  0  0  0
   -3.2550  -28.5421    5.1811 O   0  0  0  0  0  0
   -1.7942  -28.6682    7.2698 O   0  0  0  0  0  0
   -1.0646  -27.0967    5.2879 N   0  0  2  0  0  0
   -1.4001  -26.3446    4.0446 C   0  0  0  0  0  0
   -1.9472  -24.9192    4.3041 C   0  0  0  0  0  0
   -1.1207  -24.3051    5.4291 C   0  0  0  0  0  0
   -0.2137  -24.9789    6.2421 C   0  0  0  0  0  0
    0.3703  -23.9699    7.0345 C   0  0  0  0  0  0
    1.4167  -24.1217    8.0860 C   0  0  0  0  0  0
    2.4333  -23.1707    8.2160 C   0  0  0  0  0  0
    3.4162  -23.3170    9.1891 C   0  0  0  0  0  0
    3.3837  -24.3940   10.0734 C   0  0  0  0  0  0
    4.6155  -24.4818   11.2872 Cl  0  0  0  0  0  0
    2.3615  -25.3521    9.9648 C   0  0  0  0  0  0
    2.2613  -26.4784   10.8871 C   0  0  0  0  0  0
    2.2085  -27.3555   11.7349 C   0  0  0  0  0  0
    2.2159  -28.3124   12.8352 C   0  0  0  0  0  0
    1.4983  -29.5057   12.7076 C   0  0  0  0  0  0
    1.4966  -30.4397   13.7465 C   0  0  0  0  0  0
    2.2168  -30.1877   14.9142 C   0  0  0  0  0  0
    2.9340  -28.9989   15.0464 C   0  0  0  0  0  0
    2.9325  -28.0567   14.0173 C   0  0  0  0  0  0
    3.8159  -26.5876   14.2560 Cl  0  0  0  0  0  0
    1.3936  -25.2121    8.9655 C   0  0  0  0  0  0
   -0.1024  -22.7780    6.7243 N   0  0  0  0  0  0
   -1.0149  -22.9806    5.7661 N   0  0  0  0  0  0
   -1.7163  -21.8371    5.1794 C   0  0  0  0  0  0
   -2.4545  -20.9791    6.2261 C   0  0  0  0  0  0
   -3.5323  -21.7477    7.0183 C   0  0  0  0  0  0
   -4.0737  -20.9561    8.1245 N   0  0  0  0  0  0
   -4.8701  -19.8011    7.6795 C   0  0  0  0  0  0
   -5.5006  -19.0455    8.8693 C   0  0  0  0  0  0
   -6.2284  -19.9375    9.7093 O   0  0  0  0  0  0
   -5.4106  -20.9875   10.2174 C   0  0  0  0  0  0
   -4.8344  -21.8078    9.0468 C   0  0  0  0  0  0
    0.0176  -26.4851    6.1134 C   0  0  0  0  0  0
   -4.0529  -26.9472    7.6980 H   0  0  0  0  0  0
   -2.7112  -25.8039    7.4317 H   0  0  0  0  0  0
   -3.9805  -26.0158    6.1910 H   0  0  0  0  0  0
   -2.0002  -26.9694    3.3814 H   0  0  0  0  0  0
   -0.4488  -26.2005    3.5284 H   0  0  0  0  0  0
   -3.0016  -24.9567    4.5693 H   0  0  0  0  0  0
   -1.8785  -24.3212    3.3955 H   0  0  0  0  0  0
    2.4712  -22.3211    7.5489 H   0  0  0  0  0  0
    4.2073  -22.5874    9.2628 H   0  0  0  0  0  0
    0.9369  -29.7161   11.8078 H   0  0  0  0  0  0
    0.9327  -31.3570   13.6474 H   0  0  0  0  0  0
    2.2098  -30.9059   15.7193 H   0  0  0  0  0  0
    3.4776  -28.8005   15.9583 H   0  0  0  0  0  0
    0.5963  -25.9365    8.8934 H   0  0  0  0  0  0
   -0.9874  -21.2310    4.6447 H   0  0  0  0  0  0
   -2.4246  -22.2098    4.4396 H   0  0  0  0  0  0
   -1.7514  -20.4921    6.9053 H   0  0  0  0  0  0
   -2.9357  -20.1760    5.6663 H   0  0  0  0  0  0
   -4.3377  -22.0591    6.3498 H   0  0  0  0  0  0
   -3.0977  -22.6746    7.3969 H   0  0  0  0  0  0
   -4.2505  -19.1151    7.1011 H   0  0  0  0  0  0
   -5.6590  -20.1344    7.0026 H   0  0  0  0  0  0
   -6.1832  -18.2800    8.5029 H   0  0  0  0  0  0
   -4.7316  -18.5199    9.4340 H   0  0  0  0  0  0
   -6.0123  -21.6249   10.8637 H   0  0  0  0  0  0
   -4.6051  -20.5885   10.8378 H   0  0  0  0  0  0
   -5.6364  -22.3228    8.5149 H   0  0  0  0  0  0
   -4.1822  -22.5885    9.4343 H   0  0  0  0  0  0
    0.9562  -26.6723    5.5930 H   0  0  0  0  0  0
    0.0839  -27.0089    7.0661 H   0  0  0  0  0  0
  1  2  1  0  0  0
  1 39  1  0  0  0
  1 40  1  0  0  0
  1 41  1  0  0  0
  2  3  2  0  0  0
  2  4  2  0  0  0
  2  5  1  0  0  0
  5 38  1  0  0  0
  5  6  1  0  0  0
  6  7  1  0  0  0
  6 42  1  0  0  0
  6 43  1  0  0  0
  7  8  1  0  0  0
  7 44  1  0  0  0
  7 45  1  0  0  0
  8 28  1  0  0  0
  8  9  2  0  0  0
  9 10  1  0  0  0
  9 38  1  0  0  0
 10 11  1  0  0  0
 10 27  2  0  0  0
 11 26  1  0  0  0
 11 12  2  0  0  0
 12 13  1  0  0  0
 12 46  1  0  0  0
 13 14  2  0  0  0
 13 47  1  0  0  0
 14 15  1  0  0  0
 14 16  1  0  0  0
 16 17  1  0  0  0
 16 26  2  0  0  0
 17 18  3  0  0  0
 18 19  1  0  0  0
 19 24  1  0  0  0
 19 20  2  0  0  0
 20 21  1  0  0  0
 20 48  1  0  0  0
 21 22  2  0  0  0
 21 49  1  0  0  0
 22 23  1  0  0  0
 22 50  1  0  0  0
 23 24  2  0  0  0
 23 51  1  0  0  0
 24 25  1  0  0  0
 26 52  1  0  0  0
 27 28  1  0  0  0
 28 29  1  0  0  0
 29 30  1  0  0  0
 29 53  1  0  0  0
 29 54  1  0  0  0
 30 31  1  0  0  0
 30 55  1  0  0  0
 30 56  1  0  0  0
 31 32  1  0  0  0
 31 57  1  0  0  0
 31 58  1  0  0  0
 32 37  1  0  0  0
 32 33  1  0  0  0
 33 34  1  0  0  0
 33 59  1  0  0  0
 33 60  1  0  0  0
 34 35  1  0  0  0
 34 61  1  0  0  0
 34 62  1  0  0  0
 35 36  1  0  0  0
 36 37  1  0  0  0
 36 63  1  0  0  0
 36 64  1  0  0  0
 37 65  1  0  0  0
 37 66  1  0  0  0
 38 67  1  0  0  0
 38 68  1  0  0  0
M  END
> <s_m_source_file>
/home/user-home/yujie/0_PBCNetv2/data/0_0_high_sim/0_noncov/Sries20631/ligprep_input.csv

> <i_m_source_file_index>
9

> <i_lp_mmshare_version>
51139

> <i_f3d_flags>
0

> <s_epik_input>
W0NIMl0xW0NIMl1PW0NIMl1bQ0gyXU4xW0NIMl1bQ0gyXVtDSDJdbjJuYyhjKGMyMylbQ0gyXU4oUyg9TykoPU8pW0NIM10pW0NIMl1bQ0gyXTMpLWM0W2NIXVtjSF1jKENsKWMoW2NIXTQpQyNDYzVbY0hdW2NIXVtjSF1bY0hdYzVDbA==

> <s_epik_cmdline>
J2VwaWtfcHl0aG9uJywgJy1waHQnLCAnMi4wJywgJy1waCcsICc3LjQnLCAnLXRuJywgJzgnLCAnLW1hJywgJzIwMCcsICctaW1hZScsICc8aW5maWxlLm1hZT4nLCAnLW9tYWUnLCAnPG91dGZpbGUubWFlPic=

> <r_lp_tautomer_probability>
1

> <r_epik_Ionization_Penalty>
  0.2059

> <r_epik_Ionization_Penalty_Charging>
  0.0000

> <r_epik_Ionization_Penalty_Neutral>
  0.2059

> <r_epik_State_Penalty>
  0.1957

> <r_epik_Charging_Adjusted_Penalty>
0.195728

> <i_epik_Tot_Q>
0

> <i_epik_Tot_abs_Q>
0

> <s_lp_Force_Field>
OPLS3e

> <r_lp_Energy>
44.0561

> <b_lp_Chiralities_Consistent>
1

> <s_lp_Variant>
lig8-1

> <s_i_glide_gridfile>
Sries20631-001-gridgen

> <i_i_glide_lignum>
17

> <i_i_glide_rotatable_bonds>
8

> <r_i_docking_score>
-6.6653240066828

> <r_i_glide_ligand_efficiency>
-0.175403263333758

> <r_i_glide_ligand_efficiency_sa>
-0.589701456885347

> <r_i_glide_ligand_efficiency_ln>
-1.43723992980781

> <r_i_glide_gscore>
-6.8610520066828

> <r_i_glide_lipo>
-4.59462970564514

> <r_i_glide_hbond>
0

> <r_i_glide_metal>
-0

> <r_i_glide_rewards>
-0.198418539752202

> <r_i_glide_evdw>
-45.7994270324707

> <r_i_glide_ecoul>
-0.435302913188934

> <r_i_glide_erotb>
0.28726302731641

> <r_i_glide_esite>
0

> <r_i_glide_emodel>
-67.1035271589677

> <r_i_glide_energy>
-46.2347299456596

> <r_i_glide_einternal>
6.02977180480957

> <i_i_glide_confnum>
12

> <i_i_glide_posenum>
125

> <r_i_glide_eff_state_penalty>
0.195728

$$$$
