lig15
                    3D
 Schrodinger Suite 2020-3.
 72 76  0  0  1  0            999 V2000
    2.1063  -31.0899   16.5178 C   0  0  0  0  0  0
    2.2338  -30.1186   15.3587 C   0  0  0  0  0  0
    1.4175  -30.2540   14.2349 C   0  0  0  0  0  0
    1.5056  -29.3301   13.1969 C   0  0  0  0  0  0
    2.4141  -28.2743   13.2851 C   0  0  0  0  0  0
    2.4886  -27.3018   12.2083 C   0  0  0  0  0  0
    2.5168  -26.4710   11.3149 C   0  0  0  0  0  0
    2.5133  -25.4489   10.2757 C   0  0  0  0  0  0
    1.5652  -25.5402    9.2528 C   0  0  0  0  0  0
    1.4967  -24.5742    8.2426 C   0  0  0  0  0  0
    0.4683  -24.6743    7.1610 C   0  0  0  0  0  0
    0.0230  -23.5759    6.5865 N   0  0  0  0  0  0
   -0.9398  -23.9586    5.7442 N   0  0  0  0  0  0
   -1.6971  -22.9474    5.0073 C   0  0  0  0  0  0
   -2.7566  -22.2281    5.8701 C   0  0  0  0  0  0
   -2.1615  -21.4040    7.0337 C   0  0  0  0  0  0
   -3.1800  -20.4591    7.7211 N   0  3  0  0  0  0
   -4.4564  -21.1855    8.2072 C   0  0  0  0  0  0
   -5.3549  -20.1579    8.9203 C   0  0  0  0  0  0
   -5.6362  -19.0613    8.0550 O   0  0  0  0  0  0
   -4.4913  -18.3177    7.6448 C   0  0  0  0  0  0
   -3.5178  -19.2173    6.8568 C   0  0  0  0  0  0
   -1.0786  -25.3197    5.7097 C   0  0  0  0  0  0
   -0.1569  -25.8253    6.6300 C   0  0  0  0  0  0
   -0.0314  -27.3347    6.8920 C   0  0  0  0  0  0
   -0.8215  -28.0876    5.8691 N   0  0  2  0  0  0
    0.0760  -28.7841    4.4997 S   0  0  0  0  0  0
    1.1150  -27.3673    3.8324 C   0  0  0  0  0  0
    1.0231  -29.7604    5.0435 O   0  0  0  0  0  0
   -0.8824  -29.1821    3.4648 O   0  0  0  0  0  0
   -2.1729  -27.5261    5.5951 C   0  0  0  0  0  0
   -2.1146  -26.1299    4.9358 C   0  0  0  0  0  0
    2.3994  -23.5016    8.2752 C   0  0  0  0  0  0
    3.3567  -23.4111    9.2825 C   0  0  0  0  0  0
    3.4181  -24.3743   10.2888 C   0  0  0  0  0  0
    4.6158  -24.1877   11.5269 Cl  0  0  0  0  0  0
    3.2408  -28.1422   14.4022 C   0  0  0  0  0  0
    3.1507  -29.0676   15.4388 C   0  0  0  0  0  0
    1.2596  -31.7691   16.3969 H   0  0  0  0  0  0
    3.0207  -31.6742   16.6310 H   0  0  0  0  0  0
    1.9483  -30.5343   17.4433 H   0  0  0  0  0  0
    0.7015  -31.0603   14.1734 H   0  0  0  0  0  0
    0.8605  -29.4361   12.3362 H   0  0  0  0  0  0
    0.8618  -26.3613    9.2584 H   0  0  0  0  0  0
   -0.9843  -22.2148    4.6303 H   0  0  0  0  0  0
   -2.1501  -23.4157    4.1316 H   0  0  0  0  0  0
   -3.3430  -21.5868    5.2140 H   0  0  0  0  0  0
   -3.4497  -22.9744    6.2576 H   0  0  0  0  0  0
   -1.7903  -22.0423    7.8347 H   0  0  0  0  0  0
   -1.3399  -20.7602    6.7138 H   0  0  0  0  0  0
   -4.9584  -21.6040    7.3356 H   0  0  0  0  0  0
   -4.1380  -21.9943    8.8697 H   0  0  0  0  0  0
   -4.8874  -19.8022    9.8349 H   0  0  0  0  0  0
   -6.2968  -20.6231    9.2116 H   0  0  0  0  0  0
   -4.0039  -17.8679    8.5116 H   0  0  0  0  0  0
   -4.8207  -17.4883    7.0172 H   0  0  0  0  0  0
   -2.5837  -18.7033    6.6228 H   0  0  0  0  0  0
   -3.9719  -19.5655    5.9291 H   0  0  0  0  0  0
    0.9968  -27.7001    6.8934 H   0  0  0  0  0  0
   -0.4638  -27.5900    7.8599 H   0  0  0  0  0  0
    1.6517  -27.7181    2.9555 H   0  0  0  0  0  0
    0.4561  -26.5475    3.5577 H   0  0  0  0  0  0
    1.8150  -27.0557    4.6046 H   0  0  0  0  0  0
   -2.6339  -27.3755    6.5731 H   0  0  0  0  0  0
   -2.7952  -28.2694    5.0950 H   0  0  0  0  0  0
   -3.0957  -25.6548    4.9587 H   0  0  0  0  0  0
   -1.8313  -26.2262    3.8882 H   0  0  0  0  0  0
    2.3740  -22.7403    7.5088 H   0  0  0  0  0  0
    4.0528  -22.5868    9.2833 H   0  0  0  0  0  0
    3.9491  -27.3279   14.4754 H   0  0  0  0  0  0
    3.7826  -28.9557   16.3090 H   0  0  0  0  0  0
   -2.7362  -20.1077    8.5579 H   0  0  0  0  0  0
  1  2  1  0  0  0
  1 39  1  0  0  0
  1 40  1  0  0  0
  1 41  1  0  0  0
  2 38  1  0  0  0
  2  3  2  0  0  0
  3  4  1  0  0  0
  3 42  1  0  0  0
  4  5  2  0  0  0
  4 43  1  0  0  0
  5  6  1  0  0  0
  5 37  1  0  0  0
  6  7  3  0  0  0
  7  8  1  0  0  0
  8 35  1  0  0  0
  8  9  2  0  0  0
  9 10  1  0  0  0
  9 44  1  0  0  0
 10 11  1  0  0  0
 10 33  2  0  0  0
 11 24  1  0  0  0
 11 12  2  0  0  0
 12 13  1  0  0  0
 13 14  1  0  0  0
 13 23  1  0  0  0
 14 15  1  0  0  0
 14 45  1  0  0  0
 14 46  1  0  0  0
 15 16  1  0  0  0
 15 47  1  0  0  0
 15 48  1  0  0  0
 16 17  1  0  0  0
 16 49  1  0  0  0
 16 50  1  0  0  0
 17 22  1  0  0  0
 17 18  1  0  0  0
 17 72  1  0  0  0
 18 19  1  0  0  0
 18 51  1  0  0  0
 18 52  1  0  0  0
 19 20  1  0  0  0
 19 53  1  0  0  0
 19 54  1  0  0  0
 20 21  1  0  0  0
 21 22  1  0  0  0
 21 55  1  0  0  0
 21 56  1  0  0  0
 22 57  1  0  0  0
 22 58  1  0  0  0
 23 32  1  0  0  0
 23 24  2  0  0  0
 24 25  1  0  0  0
 25 26  1  0  0  0
 25 59  1  0  0  0
 25 60  1  0  0  0
 26 27  1  0  0  0
 26 31  1  0  0  0
 27 28  1  0  0  0
 27 29  2  0  0  0
 27 30  2  0  0  0
 28 61  1  0  0  0
 28 62  1  0  0  0
 28 63  1  0  0  0
 31 32  1  0  0  0
 31 64  1  0  0  0
 31 65  1  0  0  0
 32 66  1  0  0  0
 32 67  1  0  0  0
 33 34  1  0  0  0
 33 68  1  0  0  0
 34 35  2  0  0  0
 34 69  1  0  0  0
 35 36  1  0  0  0
 37 38  2  0  0  0
 37 70  1  0  0  0
 38 71  1  0  0  0
M  CHG  1  17   1
M  END
> <s_m_source_file>
/home/user-home/yujie/0_PBCNetv2/data/0_0_high_sim/0_noncov/Sries20631/ligprep_input.csv

> <i_m_source_file_index>
16

> <i_lp_mmshare_version>
51139

> <i_f3d_flags>
0

> <s_epik_input>
W0NIM11jMVtjSF1bY0hdYyhbY0hdW2NIXTEpQyNDYzJbY0hdYyhbY0hdW2NIXWMyQ2wpLWMoYyhjMzQpW0NIMl1OKFMoPU8pKD1PKVtDSDNdKVtDSDJdW0NIMl00KW5uM1tDSDJdW0NIMl1bQ0gyXU41W0NIMl1bQ0gyXU9bQ0gyXVtDSDJdNQ==

> <s_epik_cmdline>
J2VwaWtfcHl0aG9uJywgJy1waHQnLCAnMi4wJywgJy1waCcsICc3LjQnLCAnLXRuJywgJzgnLCAnLW1hJywgJzIwMCcsICctaW1hZScsICc8aW5maWxlLm1hZT4nLCAnLW9tYWUnLCAnPG91dGZpbGUubWFlPic=

> <r_lp_tautomer_probability>
1

> <r_epik_Ionization_Penalty>
  0.7265

> <r_epik_Ionization_Penalty_Charging>
  0.7265

> <r_epik_Ionization_Penalty_Neutral>
  0.0000

> <r_epik_State_Penalty>
  0.7514

> <r_epik_Charging_Adjusted_Penalty>
1.47793

> <i_epik_Tot_Q>
1

> <i_epik_Tot_abs_Q>
1

> <s_lp_Force_Field>
OPLS3e

> <r_lp_Energy>
49.4224

> <b_lp_Chiralities_Consistent>
1

> <s_lp_Variant>
lig15-2

> <s_i_glide_gridfile>
Sries20631-001-gridgen

> <i_i_glide_lignum>
32

> <i_i_glide_rotatable_bonds>
8

> <r_i_docking_score>
-5.95940547350595

> <r_i_glide_ligand_efficiency>
-0.156826459829104

> <r_i_glide_ligand_efficiency_sa>
-0.527246700441491

> <r_i_glide_ligand_efficiency_ln>
-1.28502312803554

> <r_i_glide_gscore>
-6.71081547350595

> <r_i_glide_lipo>
-4.35963907891125

> <r_i_glide_hbond>
0

> <r_i_glide_metal>
-0

> <r_i_glide_rewards>
-0.261473667680882

> <r_i_glide_evdw>
-46.962818145752

> <r_i_glide_ecoul>
-0.492998629808426

> <r_i_glide_erotb>
0.332387974845048

> <r_i_glide_esite>
0

> <r_i_glide_emodel>
-68.3408021829597

> <r_i_glide_energy>
-47.4558167755604

> <r_i_glide_einternal>
5.17162227630615

> <i_i_glide_confnum>
2

> <i_i_glide_posenum>
15

> <r_i_glide_eff_state_penalty>
0.75141

$$$$
