GDM
                    3D
 Schrodinger Suite 2024-1.
 80 81  0  0  1  0            999 V2000
   11.1831   -0.8731   -1.7851 O   0  0  0  0  0  0
   18.2413   -2.4448   -2.4631 O   0  0  0  0  0  0
   18.2369   -3.9397   -4.9526 O   0  0  0  0  0  0
   20.3239   -3.0304   -5.2231 O   0  0  0  0  0  0
   16.2160    1.0137   -8.8952 O   0  0  0  0  0  0
   13.7640    2.3845   -7.5690 O   0  0  0  0  0  0
    9.0888    2.0459   -7.4739 O   0  0  0  0  0  0
    8.8140    2.2819   -4.7347 O   0  0  0  0  0  0
   11.9327   -1.6512   -6.6110 O   0  0  0  0  0  0
   11.7931   -1.3935   -3.9304 N   0  0  0  0  0  0
   19.9239   -5.3031   -5.3786 N   0  0  0  0  0  0
   11.8310   -1.5342   -2.5913 C   0  0  0  0  0  0
   12.7123   -2.6270   -2.2226 C   0  0  0  0  0  0
   13.9993   -2.5845   -2.6345 C   0  0  0  0  0  0
   14.9228   -3.6875   -2.4721 C   0  0  0  0  0  0
   16.2284   -3.6999   -2.7961 C   0  0  0  0  0  0
   17.0874   -2.5452   -3.2822 C   0  0  2  0  0  0
   17.5884   -2.6872   -4.7429 C   0  0  2  0  0  0
   16.5128   -2.4603   -5.8035 C   0  0  0  0  0  0
   16.5731   -1.3791   -6.6090 C   0  0  0  0  0  0
   15.5671   -0.9970   -7.6824 C   0  0  1  0  0  0
   15.4168    0.5518   -7.8168 C   0  0  2  0  0  0
   13.9399    1.0204   -7.9452 C   0  0  2  0  0  0
   13.1984    0.6392   -9.2485 C   0  0  0  0  0  0
   11.6982    1.0320   -9.2933 C   0  0  2  0  0  0
   10.7555    0.0015   -8.6172 C   0  0  0  0  0  0
   10.5412    0.2114   -7.1176 C   0  0  0  0  0  0
    9.7242    1.1762   -6.6290 C   0  0  0  0  0  0
    9.5234    1.3808   -5.1750 C   0  0  0  0  0  0
   10.2523    0.4780   -4.2692 C   0  0  0  0  0  0
   11.0585   -0.5105   -4.7313 C   0  0  0  0  0  0
   11.2322   -0.7286   -6.1914 C   0  0  0  0  0  0
   12.1023   -3.7878   -1.4513 C   0  0  0  0  0  0
   17.9917   -2.0021   -1.1391 C   0  0  0  0  0  0
   19.5606   -3.9935   -5.1834 C   0  0  0  0  0  0
   15.4220   -3.5220   -5.9126 C   0  0  0  0  0  0
   15.9241   -1.7129   -8.9984 C   0  0  0  0  0  0
   14.2218    3.3923   -8.4597 C   0  0  0  0  0  0
   11.2543    1.2497  -10.7498 C   0  0  0  0  0  0
    7.7468    1.6810   -7.7675 C   0  0  0  0  0  0
   16.2732    1.9580   -8.8546 H   0  0  0  0  0  0
   12.3563   -2.0451   -4.4584 H   0  0  0  0  0  0
   19.1969   -6.0023   -5.4315 H   0  0  0  0  0  0
   20.9086   -5.5072   -5.5334 H   0  0  0  0  0  0
   14.3394   -1.7170   -3.1794 H   0  0  0  0  0  0
   14.5163   -4.6189   -2.1133 H   0  0  0  0  0  0
   16.7773   -4.6170   -2.6547 H   0  0  0  0  0  0
   16.5383   -1.6069   -3.2112 H   0  0  0  0  0  0
   18.3003   -1.8727   -4.8810 H   0  0  0  0  0  0
   17.4002   -0.6941   -6.4980 H   0  0  0  0  0  0
   14.6060   -1.3880   -7.3537 H   0  0  0  0  0  0
   15.8068    1.0192   -6.9092 H   0  0  0  0  0  0
   13.4265    0.5119   -7.1360 H   0  0  0  0  0  0
   13.2794   -0.4349   -9.4108 H   0  0  0  0  0  0
   13.7258    1.0950  -10.0851 H   0  0  0  0  0  0
   11.5718    1.9986   -8.8033 H   0  0  0  0  0  0
    9.7681    0.0794   -9.0716 H   0  0  0  0  0  0
   11.0697   -1.0174   -8.8421 H   0  0  0  0  0  0
   10.1082    0.6584   -3.2159 H   0  0  0  0  0  0
   11.1076   -3.5455   -1.0740 H   0  0  0  0  0  0
   12.0142   -4.6650   -2.0951 H   0  0  0  0  0  0
   12.7234   -4.0445   -0.5977 H   0  0  0  0  0  0
   18.9332   -1.9194   -0.5961 H   0  0  0  0  0  0
   17.5238   -1.0195   -1.1536 H   0  0  0  0  0  0
   17.3524   -2.6917   -0.5902 H   0  0  0  0  0  0
   15.8284   -4.5157   -5.7268 H   0  0  0  0  0  0
   14.6294   -3.3315   -5.1923 H   0  0  0  0  0  0
   14.9644   -3.5548   -6.9000 H   0  0  0  0  0  0
   15.8604   -2.7956   -8.8943 H   0  0  0  0  0  0
   15.2455   -1.4188   -9.7969 H   0  0  0  0  0  0
   16.9381   -1.4802   -9.3251 H   0  0  0  0  0  0
   13.9563    4.3681   -8.0520 H   0  0  0  0  0  0
   15.3026    3.3713   -8.5738 H   0  0  0  0  0  0
   13.7584    3.3164   -9.4444 H   0  0  0  0  0  0
   11.2786    0.3211  -11.3170 H   0  0  0  0  0  0
   11.8897    1.9783  -11.2541 H   0  0  0  0  0  0
   10.2337    1.6296  -10.7972 H   0  0  0  0  0  0
    7.3684    2.3077   -8.5763 H   0  0  0  0  0  0
    7.6648    0.6386   -8.0821 H   0  0  0  0  0  0
    7.1000    1.8334   -6.9011 H   0  0  0  0  0  0
  1 12  2  0  0  0
  2 17  1  0  0  0
  2 34  1  0  0  0
  3 18  1  0  0  0
  3 35  1  0  0  0
  4 35  2  0  0  0
  5 22  1  0  0  0
  5 41  1  0  0  0
  6 23  1  0  0  0
  6 38  1  0  0  0
  7 28  1  0  0  0
  7 40  1  0  0  0
  8 29  2  0  0  0
  9 32  2  0  0  0
 10 12  1  0  0  0
 10 31  1  0  0  0
 10 42  1  0  0  0
 11 35  1  0  0  0
 11 43  1  0  0  0
 11 44  1  0  0  0
 12 13  1  0  0  0
 13 14  2  0  0  0
 13 33  1  0  0  0
 14 15  1  0  0  0
 14 45  1  0  0  0
 15 16  2  0  0  0
 15 46  1  0  0  0
 16 17  1  0  0  0
 16 47  1  0  0  0
 17 18  1  0  0  0
 17 48  1  0  0  0
 18 19  1  0  0  0
 18 49  1  0  0  0
 19 20  2  0  0  0
 19 36  1  0  0  0
 20 21  1  0  0  0
 20 50  1  0  0  0
 21 22  1  0  0  0
 21 37  1  0  0  0
 21 51  1  0  0  0
 22 23  1  0  0  0
 22 52  1  0  0  0
 23 24  1  0  0  0
 23 53  1  0  0  0
 24 25  1  0  0  0
 24 54  1  0  0  0
 24 55  1  0  0  0
 25 26  1  0  0  0
 25 39  1  0  0  0
 25 56  1  0  0  0
 26 27  1  0  0  0
 26 57  1  0  0  0
 26 58  1  0  0  0
 27 28  2  0  0  0
 27 32  1  0  0  0
 28 29  1  0  0  0
 29 30  1  0  0  0
 30 31  2  0  0  0
 30 59  1  0  0  0
 31 32  1  0  0  0
 33 60  1  0  0  0
 33 61  1  0  0  0
 33 62  1  0  0  0
 34 63  1  0  0  0
 34 64  1  0  0  0
 34 65  1  0  0  0
 36 66  1  0  0  0
 36 67  1  0  0  0
 36 68  1  0  0  0
 37 69  1  0  0  0
 37 70  1  0  0  0
 37 71  1  0  0  0
 38 72  1  0  0  0
 38 73  1  0  0  0
 38 74  1  0  0  0
 39 75  1  0  0  0
 39 76  1  0  0  0
 39 77  1  0  0  0
 40 78  1  0  0  0
 40 79  1  0  0  0
 40 80  1  0  0  0
M  END
> <i_epik_Tot_Q>
0

> <i_epik_Tot_abs_Q>
0

> <i_f3d_flags>
0

> <i_i_glide_confnum>
10

> <i_i_glide_lignum>
2

> <i_i_glide_posenum>
328

> <i_i_glide_rotatable_bonds>
6

> <i_lp_mmshare_version>
65135

> <i_m_Source_File_Index>
1

> <i_m_source_file_index>
1

> <i_m_stars>
0

> <b_lp_Chiralities_Consistent>
1

> <b_m_subgroup_collapsed>
0

> <r_epik_Charging_Adjusted_Penalty>
0.140557

> <r_epik_Ionization_Penalty>
0.1377

> <r_epik_Ionization_Penalty_Charging>
0

> <r_epik_Ionization_Penalty_Neutral>
0.1377

> <r_epik_State_Penalty>
0.1406

> <r_i_docking_score>
-5.27782

> <r_i_glide_ecoul>
-5.59103

> <r_i_glide_eff_state_penalty>
0.1406

> <r_i_glide_einternal>
7.99252

> <r_i_glide_emodel>
-56.4724

> <r_i_glide_energy>
-46.178

> <r_i_glide_erotb>
0.066149

> <r_i_glide_esite>
-0.0350125

> <r_i_glide_evdw>
-40.5869

> <r_i_glide_gscore>
-5.41842

> <r_i_glide_hbond>
-0.553923

> <r_i_glide_ligand_efficiency>
-0.131946

> <r_i_glide_ligand_efficiency_ln>
-1.1256

> <r_i_glide_ligand_efficiency_sa>
-0.451247

> <r_i_glide_lipo>
-1.70656

> <r_i_glide_metal>
0

> <r_i_glide_rewards>
-0.321071

> <r_lp_Energy>
46.6187

> <r_lp_tautomer_probability>
1

> <s_epik_Chemistry_Notes>
This compound has an ester and may undergo hydrolysis at high or low pH.

> <s_epik_cmdline>
J2VwaWtfcHl0aG9uJywgJy1waCcsICc3LjAnLCAnLXRuJywgJzgnLCAnLW1hJywgJzUwMCcsICctaW1hZScsICc8aW5maWxlLm1hZT4nLCAnLW9tYWUnLCAnPG91dGZpbGUubWFlPic=

> <s_epik_input>
W0NIM11PQyg9QzEyKUMoPU8pW0NIXT1DKEMyPU8pW05IXUMoPU8pL0MoW0NIM10pPVtDSF0vW0NIXT1bQ0hdXFtDQEhdKE9bQ0gzXSlbQ0BASF0oT0MoPU8pW05IMl0pL0MoW0NIM10pPVtDSF0vW0NASF0oW0NIM10pW0NAQEhdKFtPSF0pW0NAQEhdKE9bQ0gzXSlbQ0gyXVtDQEhdKFtDSDJdMSlbQ0gzXQ==

> <s_i_glide_gridfile>
glide-grid_P02829_K44R_K98N

> <s_lp_Force_Field>
S-OPLS

> <s_lp_Variant>
GDM-2

> <s_m_Source_File>
glide-dock_SP_P02829_K44R_K98N_pv.maegz

> <s_m_Source_Path>
D:\project\glide-dock_SP_P02829_K44R_K98N

> <s_m_entry_id>
275

> <s_m_entry_name>
Structure93

> <s_m_job_name>
glide-dock_SP_P02829_K44R_K98N

> <s_m_source_file>
ligprep_GDM.maegz

> <s_m_subgroup_title>
glide-dock_SP_P02829_K44R_K98N_pv

> <s_m_subgroupid>
glide-dock_SP_P02829_K44R_K98N_pv

> <s_pdb_PDB_format_version>
3.0

$$$$
