GDM
                    3D
 Schrodinger Suite 2024-1.
 80 81  0  0  1  0            999 V2000
   16.6237   -3.6619   -2.3201 O   0  0  0  0  0  0
   16.2051    1.2722   -7.9761 O   0  0  0  0  0  0
   15.3221   -2.3131   -8.0936 O   0  0  0  0  0  0
   16.8471   -2.8913   -9.6570 O   0  0  0  0  0  0
   11.0209   -2.8906   -9.0524 O   0  0  0  0  0  0
   10.0446   -2.2214   -5.5807 O   0  0  0  0  0  0
   10.4664   -6.1845   -2.6960 O   0  0  0  0  0  0
   12.0330   -4.8910   -0.8577 O   0  0  0  0  0  0
   13.6647   -4.8479   -5.9672 O   0  0  0  0  0  0
   15.3025   -3.7146   -4.1779 N   0  0  0  0  0  0
   16.4336   -4.1861   -7.7744 N   0  0  0  0  0  0
   16.4510   -3.4510   -3.5208 C   0  0  0  0  0  0
   17.4882   -2.9777   -4.4389 C   0  0  0  0  0  0
   17.1465   -2.0883   -5.4007 C   0  0  0  0  0  0
   18.0102   -1.5555   -6.4444 C   0  0  0  0  0  0
   17.5991   -0.6953   -7.4036 C   0  0  0  0  0  0
   16.1883   -0.1006   -7.5790 C   0  0  2  0  0  0
   15.2835   -0.9497   -8.5169 C   0  0  2  0  0  0
   13.8355   -0.4769   -8.6172 C   0  0  0  0  0  0
   12.8608   -0.9932   -7.8342 C   0  0  0  0  0  0
   11.3567   -0.7836   -7.9806 C   0  0  1  0  0  0
   10.5521   -2.1156   -7.9570 C   0  0  2  0  0  0
   10.5952   -2.9790   -6.6597 C   0  0  2  0  0  0
    9.7265   -4.2581   -6.8097 C   0  0  0  0  0  0
    9.7537   -5.2714   -5.6400 C   0  0  2  0  0  0
   11.0952   -6.0469   -5.5225 C   0  0  0  0  0  0
   11.9922   -5.5243   -4.4005 C   0  0  0  0  0  0
   11.6259   -5.5730   -3.0918 C   0  0  0  0  0  0
   12.4142   -4.9110   -2.0283 C   0  0  0  0  0  0
   13.6709   -4.2581   -2.4399 C   0  0  0  0  0  0
   14.0980   -4.2673   -3.7259 C   0  0  0  0  0  0
   13.2786   -4.8843   -4.7974 C   0  0  0  0  0  0
   18.8888   -3.5500   -4.2744 C   0  0  0  0  0  0
   16.9855    1.6259   -9.1128 C   0  0  0  0  0  0
   16.2319   -3.1275   -8.6243 C   0  0  0  0  0  0
   13.5703    0.4752   -9.7753 C   0  0  0  0  0  0
   10.8466    0.3048   -7.0225 C   0  0  0  0  0  0
   10.9013   -2.1191   -4.4516 C   0  0  0  0  0  0
    8.5874   -6.2631   -5.7820 C   0  0  0  0  0  0
   10.6221   -7.5733   -2.4358 C   0  0  0  0  0  0
   10.5423   -3.7057   -9.0605 H   0  0  0  0  0  0
   15.3378   -3.5956   -5.1793 H   0  0  0  0  0  0
   15.6856   -4.3878   -7.1288 H   0  0  0  0  0  0
   17.0613   -4.9108   -8.0917 H   0  0  0  0  0  0
   16.1269   -1.7396   -5.4106 H   0  0  0  0  0  0
   19.0401   -1.8746   -6.4832 H   0  0  0  0  0  0
   18.3303   -0.4128   -8.1464 H   0  0  0  0  0  0
   15.7090   -0.0765   -6.6015 H   0  0  0  0  0  0
   15.6715   -0.8768   -9.5320 H   0  0  0  0  0  0
   13.1466   -1.6796   -7.0513 H   0  0  0  0  0  0
   11.1706   -0.3852   -8.9760 H   0  0  0  0  0  0
    9.5087   -1.8763   -8.1666 H   0  0  0  0  0  0
   11.6270   -3.2646   -6.4685 H   0  0  0  0  0  0
   10.0024   -4.8006   -7.7150 H   0  0  0  0  0  0
    8.6961   -3.9356   -6.9730 H   0  0  0  0  0  0
    9.5571   -4.7264   -4.7170 H   0  0  0  0  0  0
   10.9050   -7.0960   -5.3059 H   0  0  0  0  0  0
   11.6035   -6.0708   -6.4867 H   0  0  0  0  0  0
   14.2506   -3.7898   -1.6603 H   0  0  0  0  0  0
   18.8622   -4.5290   -3.7942 H   0  0  0  0  0  0
   19.3883   -3.6800   -5.2337 H   0  0  0  0  0  0
   19.4985   -2.8913   -3.6569 H   0  0  0  0  0  0
   16.6698    2.6044   -9.4721 H   0  0  0  0  0  0
   18.0397    1.7074   -8.8574 H   0  0  0  0  0  0
   16.8800    0.9232   -9.9373 H   0  0  0  0  0  0
   14.3340    1.2510   -9.8142 H   0  0  0  0  0  0
   13.5902   -0.0644  -10.7232 H   0  0  0  0  0  0
   12.6186    0.9954   -9.6898 H   0  0  0  0  0  0
   11.2894    1.2691   -7.2771 H   0  0  0  0  0  0
    9.7631    0.4129   -7.0919 H   0  0  0  0  0  0
   11.1049    0.1013   -5.9858 H   0  0  0  0  0  0
   10.4338   -1.5266   -3.6705 H   0  0  0  0  0  0
   11.0911   -3.0909   -4.0166 H   0  0  0  0  0  0
   11.8560   -1.6602   -4.7057 H   0  0  0  0  0  0
    8.6811   -6.8572   -6.6930 H   0  0  0  0  0  0
    7.6274   -5.7464   -5.8143 H   0  0  0  0  0  0
    8.5515   -6.9522   -4.9371 H   0  0  0  0  0  0
    9.6764   -7.9919   -2.0902 H   0  0  0  0  0  0
   10.9271   -8.1296   -3.3210 H   0  0  0  0  0  0
   11.3663   -7.7435   -1.6575 H   0  0  0  0  0  0
  1 12  2  0  0  0
  2 17  1  0  0  0
  2 34  1  0  0  0
  3 18  1  0  0  0
  3 35  1  0  0  0
  4 35  2  0  0  0
  5 22  1  0  0  0
  5 41  1  0  0  0
  6 23  1  0  0  0
  6 38  1  0  0  0
  7 28  1  0  0  0
  7 40  1  0  0  0
  8 29  2  0  0  0
  9 32  2  0  0  0
 10 12  1  0  0  0
 10 31  1  0  0  0
 10 42  1  0  0  0
 11 35  1  0  0  0
 11 43  1  0  0  0
 11 44  1  0  0  0
 12 13  1  0  0  0
 13 14  2  0  0  0
 13 33  1  0  0  0
 14 15  1  0  0  0
 14 45  1  0  0  0
 15 16  2  0  0  0
 15 46  1  0  0  0
 16 17  1  0  0  0
 16 47  1  0  0  0
 17 18  1  0  0  0
 17 48  1  0  0  0
 18 19  1  0  0  0
 18 49  1  0  0  0
 19 20  2  0  0  0
 19 36  1  0  0  0
 20 21  1  0  0  0
 20 50  1  0  0  0
 21 22  1  0  0  0
 21 37  1  0  0  0
 21 51  1  0  0  0
 22 23  1  0  0  0
 22 52  1  0  0  0
 23 24  1  0  0  0
 23 53  1  0  0  0
 24 25  1  0  0  0
 24 54  1  0  0  0
 24 55  1  0  0  0
 25 26  1  0  0  0
 25 39  1  0  0  0
 25 56  1  0  0  0
 26 27  1  0  0  0
 26 57  1  0  0  0
 26 58  1  0  0  0
 27 28  2  0  0  0
 27 32  1  0  0  0
 28 29  1  0  0  0
 29 30  1  0  0  0
 30 31  2  0  0  0
 30 59  1  0  0  0
 31 32  1  0  0  0
 33 60  1  0  0  0
 33 61  1  0  0  0
 33 62  1  0  0  0
 34 63  1  0  0  0
 34 64  1  0  0  0
 34 65  1  0  0  0
 36 66  1  0  0  0
 36 67  1  0  0  0
 36 68  1  0  0  0
 37 69  1  0  0  0
 37 70  1  0  0  0
 37 71  1  0  0  0
 38 72  1  0  0  0
 38 73  1  0  0  0
 38 74  1  0  0  0
 39 75  1  0  0  0
 39 76  1  0  0  0
 39 77  1  0  0  0
 40 78  1  0  0  0
 40 79  1  0  0  0
 40 80  1  0  0  0
M  END
> <i_epik_Tot_Q>
0

> <i_epik_Tot_abs_Q>
0

> <i_f3d_flags>
0

> <i_i_glide_confnum>
5

> <i_i_glide_lignum>
2

> <i_i_glide_posenum>
299

> <i_i_glide_rotatable_bonds>
6

> <i_lp_mmshare_version>
65135

> <i_m_Source_File_Index>
1

> <i_m_source_file_index>
1

> <i_m_stars>
0

> <b_lp_Chiralities_Consistent>
1

> <b_m_subgroup_collapsed>
0

> <r_epik_Charging_Adjusted_Penalty>
0.140557

> <r_epik_Ionization_Penalty>
0.1377

> <r_epik_Ionization_Penalty_Charging>
0

> <r_epik_Ionization_Penalty_Neutral>
0.1377

> <r_epik_State_Penalty>
0.1406

> <r_i_docking_score>
-5.51623

> <r_i_glide_ecoul>
-10.763

> <r_i_glide_eff_state_penalty>
0.1406

> <r_i_glide_einternal>
6.42035

> <r_i_glide_emodel>
-64.6152

> <r_i_glide_energy>
-50.2548

> <r_i_glide_erotb>
0.066149

> <r_i_glide_esite>
-0.146044

> <r_i_glide_evdw>
-39.4918

> <r_i_glide_gscore>
-5.65683

> <r_i_glide_hbond>
-0.460826

> <r_i_glide_ligand_efficiency>
-0.137906

> <r_i_glide_ligand_efficiency_ln>
-1.17645

> <r_i_glide_ligand_efficiency_sa>
-0.471631

> <r_i_glide_lipo>
-1.29398

> <r_i_glide_metal>
0

> <r_i_glide_rewards>
-0.233088

> <r_lp_Energy>
46.6187

> <r_lp_tautomer_probability>
1

> <s_epik_Chemistry_Notes>
This compound has an ester and may undergo hydrolysis at high or low pH.

> <s_epik_cmdline>
J2VwaWtfcHl0aG9uJywgJy1waCcsICc3LjAnLCAnLXRuJywgJzgnLCAnLW1hJywgJzUwMCcsICctaW1hZScsICc8aW5maWxlLm1hZT4nLCAnLW9tYWUnLCAnPG91dGZpbGUubWFlPic=

> <s_epik_input>
W0NIM11PQyg9QzEyKUMoPU8pW0NIXT1DKEMyPU8pW05IXUMoPU8pL0MoW0NIM10pPVtDSF0vW0NIXT1bQ0hdXFtDQEhdKE9bQ0gzXSlbQ0BASF0oT0MoPU8pW05IMl0pL0MoW0NIM10pPVtDSF0vW0NASF0oW0NIM10pW0NAQEhdKFtPSF0pW0NAQEhdKE9bQ0gzXSlbQ0gyXVtDQEhdKFtDSDJdMSlbQ0gzXQ==

> <s_i_glide_gridfile>
glide-grid_P02829_V136M

> <s_lp_Force_Field>
S-OPLS

> <s_lp_Variant>
GDM-2

> <s_m_Source_File>
glide-dock_SP_P02829_V136M_pv.maegz

> <s_m_Source_Path>
D:\project\glide-dock_SP_P02829_V136M

> <s_m_entry_id>
323

> <s_m_entry_name>
Structure93

> <s_m_job_name>
glide-dock_SP_P02829_V136M

> <s_m_source_file>
ligprep_GDM.maegz

> <s_m_subgroup_title>
glide-dock_SP_P02829_V136M_pv

> <s_m_subgroupid>
glide-dock_SP_P02829_V136M_pv

> <s_pdb_PDB_format_version>
3.0

$$$$
