lig_hif2a_338
                    3D
 Schrodinger Suite 2024-1.
 37 39  0  0  1  0            999 V2000
   18.2639    2.0844   -8.6763 N   0  0  0  0  0  0
   18.8170    1.2389   -9.2375 C   0  0  0  0  0  0
   19.5191    0.1751   -9.9344 C   0  0  0  0  0  0
   18.9566   -1.0920  -10.0867 C   0  0  0  0  0  0
   19.6224   -2.0809  -10.8058 C   0  0  0  0  0  0
   19.0456   -3.2855  -10.9835 F   0  0  0  0  0  0
   20.8779   -1.8238  -11.3433 C   0  0  0  0  0  0
   21.4627   -0.5727  -11.1578 C   0  0  0  0  0  0
   22.7045   -0.3190  -11.6676 O   0  0  0  0  0  0
   23.8178   -0.4590  -10.8712 C   0  0  0  0  0  0
   23.8168   -0.9719   -9.5673 C   0  0  0  0  0  0
   25.0141   -1.0968   -8.8668 C   0  0  0  0  0  0
   26.2168   -0.6794   -9.4343 C   0  0  0  0  0  0
   27.7323   -0.9147   -8.5195 S   0  0  0  0  0  0
   28.0095    0.6128   -7.7462 N   0  0  0  0  0  0
   27.4948   -1.9140   -7.4758 O   0  0  0  0  0  0
   28.8187   -1.1165   -9.4752 O   0  0  0  0  0  0
   26.2070   -0.0842  -10.7018 C   0  0  0  0  0  0
   25.0179   -0.0487  -11.4411 C   0  0  0  0  0  0
   25.2853    0.4753  -12.8340 C   0  0  2  0  0  0
   25.6350   -0.5226  -13.6478 F   0  0  0  0  0  0
   26.5022    1.3376  -12.5659 C   0  0  0  0  0  0
   27.2084    1.6073  -13.6628 F   0  0  0  0  0  0
   26.0273    2.4824  -12.0755 F   0  0  0  0  0  0
   27.3117    0.6217  -11.4758 C   0  0  1  0  0  0
   28.0569    1.5287  -10.6747 O   0  0  0  0  0  0
   20.7860    0.4210  -10.4507 C   0  0  0  0  0  0
   18.0177   -1.3376   -9.6355 H   0  0  0  0  0  0
   21.4036   -2.6010  -11.8756 H   0  0  0  0  0  0
   22.9028   -1.3077   -9.1012 H   0  0  0  0  0  0
   25.0068   -1.5133   -7.8754 H   0  0  0  0  0  0
   28.7833    0.5516   -7.0864 H   0  0  0  0  0  0
   28.2510    1.3103   -8.4573 H   0  0  0  0  0  0
   24.4600    1.0211  -13.2940 H   0  0  0  0  0  0
   27.9729   -0.1204  -11.9305 H   0  0  0  0  0  0
   28.6550    2.0285  -11.2508 H   0  0  0  0  0  0
   21.2490    1.3768  -10.2746 H   0  0  0  0  0  0
  1  2  3  0  0  0
  2  3  1  0  0  0
  3 27  1  0  0  0
  3  4  2  0  0  0
  4  5  1  0  0  0
  4 28  1  0  0  0
  5  6  1  0  0  0
  5  7  2  0  0  0
  7  8  1  0  0  0
  7 29  1  0  0  0
  8  9  1  0  0  0
  8 27  2  0  0  0
  9 10  1  0  0  0
 10 19  1  0  0  0
 10 11  2  0  0  0
 11 12  1  0  0  0
 11 30  1  0  0  0
 12 13  2  0  0  0
 12 31  1  0  0  0
 13 14  1  0  0  0
 13 18  1  0  0  0
 14 15  1  0  0  0
 14 16  2  0  0  0
 14 17  2  0  0  0
 15 32  1  0  0  0
 15 33  1  0  0  0
 18 25  1  0  0  0
 18 19  2  0  0  0
 19 20  1  0  0  0
 20 21  1  0  0  0
 20 22  1  0  0  0
 20 34  1  0  0  0
 22 23  1  0  0  0
 22 24  1  0  0  0
 22 25  1  0  0  0
 25 26  1  0  0  0
 25 35  1  0  0  0
 26 36  1  0  0  0
 27 37  1  0  0  0
M  END
> <i_epik_Tot_Q>
0

> <i_epik_Tot_abs_Q>
0

> <i_i_glide_confnum>
2

> <i_i_glide_lignum>
4

> <i_i_glide_posenum>
350

> <i_i_glide_rotatable_bonds>
4

> <i_lp_mmshare_version>
51139

> <i_m_Source_File_Index>
23

> <i_f3d_flags>
0

> <b_lp_Chiralities_Consistent>
1

> <b_m_subgroup_collapsed>
0

> <r_epik_Charging_Adjusted_Penalty>
0.0136127

> <r_epik_Ionization_Penalty>
0.018

> <r_epik_Ionization_Penalty_Charging>
0

> <r_epik_Ionization_Penalty_Neutral>
0.018

> <r_epik_State_Penalty>
0.0136

> <r_i_docking_score>
-10.8936

> <r_i_glide_ecoul>
-5.34034

> <r_i_glide_eff_state_penalty>
0.0136127

> <r_i_glide_einternal>
3.71289

> <r_i_glide_emodel>
-87.8897

> <r_i_glide_energy>
-57.938

> <r_i_glide_erotb>
0.242461

> <r_i_glide_esite>
0

> <r_i_glide_evdw>
-52.5976

> <r_i_glide_gscore>
-10.9072

> <r_i_glide_hbond>
0

> <r_i_glide_ligand_efficiency>
-0.403466

> <r_i_glide_ligand_efficiency_ln>
-2.53584

> <r_i_glide_ligand_efficiency_sa>
-1.2104

> <r_i_glide_lipo>
-4.48118

> <r_i_glide_metal>
0

> <r_i_glide_rewards>
-3.23753

> <r_lp_Energy>
20.5439

> <r_lp_tautomer_probability>
1

> <s_epik_cmdline>
J2VwaWtfcHl0aG9uJywgJy1waHQnLCAnMi4wJywgJy1waCcsICc3LjQnLCAnLXRuJywgJzgnLCAnLW1hJywgJzIwMCcsICctaW1hZScsICc8aW5maWxlLm1hZT4nLCAnLW9tYWUnLCAnPG91dGZpbGUubWFlPic=

> <s_epik_input>
TiNDYzFbY0hdYyhGKVtjSF1jKFtjSF0xKU9jKFtjSF1bY0hdYzJTKD1PKSg9TylbTkgyXSljKGMyMylbQ0BIXShGKUMoRikoRilbQ0BIXTNbT0hd

> <s_i_glide_gridfile>
hif2a-001-gridgen

> <s_lp_Force_Field>
OPLS3e

> <s_lp_Variant>
lig_hif2a_338-1

> <s_m_Source_File>
hif2ahif2a_dock_SP_confgen_100_lib.maegz

> <s_m_Source_Path>
D:\project\FEP\hif2a

> <s_m_entry_id>
475

> <s_m_entry_name>
hif2ahif2a_dock_SP_confgen_100_lib.23

> <s_m_subgroup_title>
hif2ahif2a_dock_SP_confgen_100_lib

> <s_m_subgroupid>
hif2ahif2a_dock_SP_confgen_100_lib

$$$$
