lig_hif2a_35
                    3D
 Schrodinger Suite 2024-1.
 34 35  0  0  1  0            999 V2000
   24.8188    1.2831  -13.8746 N   0  0  0  0  0  0
   24.8876    0.8598  -12.8048 C   0  0  0  0  0  0
   25.0017    0.3317  -11.4482 C   0  0  0  0  0  0
   23.9244   -0.3801  -10.9058 C   0  0  0  0  0  0
   22.8150   -0.6206  -11.6912 O   0  0  0  0  0  0
   21.5554   -0.6663  -11.1537 C   0  0  0  0  0  0
   21.0366    0.3975  -10.4112 C   0  0  0  0  0  0
   19.7557    0.3283   -9.8749 C   0  0  0  0  0  0
   19.2469    1.3542   -9.1559 F   0  0  0  0  0  0
   18.9876   -0.8028  -10.1006 C   0  0  0  0  0  0
   19.4616   -1.8260  -10.9123 C   0  0  0  0  0  0
   18.4190   -3.1170  -11.3345 Cl  0  0  0  0  0  0
   20.7533   -1.7708  -11.4244 C   0  0  0  0  0  0
   24.0307   -0.8961   -9.6113 C   0  0  0  0  0  0
   25.1945   -0.7170   -8.8725 C   0  0  0  0  0  0
   26.2815   -0.0193   -9.4047 C   0  0  0  0  0  0
   27.7305    0.1975   -8.3427 S   0  0  0  0  0  0
   27.6188   -0.7185   -7.2076 O   0  0  0  0  0  0
   28.9458    0.1421   -9.1554 O   0  0  0  0  0  0
   27.4809    1.9448   -7.6852 C   0  0  0  0  0  0
   28.6616    2.4661   -7.4746 F   0  0  0  0  0  0
   26.8188    2.6754   -8.5822 F   0  0  0  0  0  0
   26.1854    0.5305  -10.7025 C   0  0  0  0  0  0
   27.3486    1.2996  -11.3431 C   0  0  0  0  0  0
   28.0188    0.4831  -12.2745 O   0  0  0  0  0  0
   21.6196    1.2831  -10.2746 H   0  0  0  0  0  0
   18.0188   -0.8713   -9.6568 H   0  0  0  0  0  0
   21.1300   -2.5747  -12.0375 H   0  0  0  0  0  0
   23.2186   -1.4664   -9.1837 H   0  0  0  0  0  0
   25.2441   -1.1267   -7.8749 H   0  0  0  0  0  0
   26.9611    1.9034   -6.7312 H   0  0  0  0  0  0
   26.9898    2.1938  -11.8550 H   0  0  0  0  0  0
   28.0560    1.7129  -10.6316 H   0  0  0  0  0  0
   27.4031    0.2225  -12.9634 H   0  0  0  0  0  0
  1  2  3  0  0  0
  2  3  1  0  0  0
  3 23  1  0  0  0
  3  4  2  0  0  0
  4  5  1  0  0  0
  4 14  1  0  0  0
  5  6  1  0  0  0
  6 13  1  0  0  0
  6  7  2  0  0  0
  7  8  1  0  0  0
  7 26  1  0  0  0
  8  9  1  0  0  0
  8 10  2  0  0  0
 10 11  1  0  0  0
 10 27  1  0  0  0
 11 12  1  0  0  0
 11 13  2  0  0  0
 13 28  1  0  0  0
 14 15  2  0  0  0
 14 29  1  0  0  0
 15 16  1  0  0  0
 15 30  1  0  0  0
 16 17  1  0  0  0
 16 23  2  0  0  0
 17 18  2  0  0  0
 17 19  2  0  0  0
 17 20  1  0  0  0
 20 21  1  0  0  0
 20 22  1  0  0  0
 20 31  1  0  0  0
 23 24  1  0  0  0
 24 25  1  0  0  0
 24 32  1  0  0  0
 24 33  1  0  0  0
 25 34  1  0  0  0
M  END
> <Tot Q>
0

> <Source File Index>
836

> <i_f3d_flags>
0

> <subgroup collapsed>
0

> <Ionization Penalty>
0

> <State Penalty>
0

> <docking score>
-8.37326

> <glide emodel>
-64.1805

> <glide gscore>
-8.37326

> <tautomer probability>
1

> <Source File>
hif2ahif2a_dock_SP_confgen_100_lib.maegz

> <Source Path>
C:\Users\yujie\Desktop\FEPs

> <entry id>
4929

> <subgroup title>
hif2ahif2a_dock_SP_confgen_100_lib

> <subgroupid>
hif2ahif2a_dock_SP_confgen_100_lib

$$$$
