lig_hif2a_41
                    3D
 Schrodinger Suite 2024-1.
 33 34  0  0  1  0            999 V2000
   27.1624   -1.2929   -7.7031 O   0  0  0  0  0  0
   27.5027   -0.6946   -8.9951 S   0  0  0  0  0  0
   28.4185   -1.4144   -9.8749 O   0  0  0  0  0  0
   25.9748   -0.4338   -9.9066 C   0  0  0  0  0  0
   24.7929   -0.8249   -9.2758 C   0  0  0  0  0  0
   23.5739   -0.6957   -9.9193 C   0  0  0  0  0  0
   23.5023   -0.1550  -11.2091 C   0  0  0  0  0  0
   22.3084    0.0299  -11.8746 O   0  0  0  0  0  0
   21.1308   -0.4027  -11.3295 C   0  0  0  0  0  0
   20.7439   -1.7339  -11.4745 C   0  0  0  0  0  0
   19.5818   -2.1854  -10.8617 C   0  0  0  0  0  0
   19.1975   -3.4696  -11.0073 F   0  0  0  0  0  0
   18.8187   -1.3110  -10.0930 C   0  0  0  0  0  0
   19.1848    0.0288   -9.9752 C   0  0  0  0  0  0
   18.2226    1.1402   -9.0746 Cl  0  0  0  0  0  0
   20.3434    0.4814  -10.5925 C   0  0  0  0  0  0
   24.6796    0.2463  -11.8491 C   0  0  0  0  0  0
   24.5684    0.9195  -13.4463 Cl  0  0  0  0  0  0
   25.9258    0.1232  -11.2047 C   0  0  0  0  0  0
   27.1708    0.6543  -11.9171 C   0  0  0  0  0  0
   27.2188    2.0678  -11.8701 O   0  0  0  0  0  0
   28.1703    1.0369   -8.6651 C   0  0  0  0  0  0
   27.2198    1.7462   -8.0572 F   0  0  0  0  0  0
   29.2188    0.8838   -7.8740 F   0  0  0  0  0  0
   24.8017   -1.2487   -8.2831 H   0  0  0  0  0  0
   22.6847   -1.0196   -9.4022 H   0  0  0  0  0  0
   21.3536   -2.4203  -12.0414 H   0  0  0  0  0  0
   17.9437   -1.6880   -9.5965 H   0  0  0  0  0  0
   20.6345    1.5115  -10.4725 H   0  0  0  0  0  0
   27.1663    0.3277  -12.9574 H   0  0  0  0  0  0
   28.0973    0.2639  -11.5154 H   0  0  0  0  0  0
   28.0996    2.3683  -12.1414 H   0  0  0  0  0  0
   28.4724    1.5252   -9.5874 H   0  0  0  0  0  0
  1  2  2  0  0  0
  2  3  2  0  0  0
  2  4  1  0  0  0
  2 22  1  0  0  0
  4 19  1  0  0  0
  4  5  2  0  0  0
  5  6  1  0  0  0
  5 25  1  0  0  0
  6  7  2  0  0  0
  6 26  1  0  0  0
  7  8  1  0  0  0
  7 17  1  0  0  0
  8  9  1  0  0  0
  9 16  1  0  0  0
  9 10  2  0  0  0
 10 11  1  0  0  0
 10 27  1  0  0  0
 11 12  1  0  0  0
 11 13  2  0  0  0
 13 14  1  0  0  0
 13 28  1  0  0  0
 14 15  1  0  0  0
 14 16  2  0  0  0
 16 29  1  0  0  0
 17 18  1  0  0  0
 17 19  2  0  0  0
 19 20  1  0  0  0
 20 21  1  0  0  0
 20 30  1  0  0  0
 20 31  1  0  0  0
 21 32  1  0  0  0
 22 23  1  0  0  0
 22 24  1  0  0  0
 22 33  1  0  0  0
M  END
> <i_epik_Tot_Q>
0

> <i_epik_Tot_abs_Q>
0

> <i_i_glide_confnum>
3

> <i_i_glide_lignum>
32

> <i_i_glide_posenum>
394

> <i_i_glide_rotatable_bonds>
6

> <i_lp_mmshare_version>
51139

> <i_m_Source_File_Index>
63

> <i_f3d_flags>
0

> <b_lp_Chiralities_Consistent>
1

> <b_m_subgroup_collapsed>
0

> <r_epik_Charging_Adjusted_Penalty>
0

> <r_epik_Ionization_Penalty>
0

> <r_epik_Ionization_Penalty_Charging>
0

> <r_epik_Ionization_Penalty_Neutral>
0

> <r_epik_State_Penalty>
0

> <r_i_docking_score>
-10.5337

> <r_i_glide_ecoul>
-6.84602

> <r_i_glide_eff_state_penalty>
0

> <r_i_glide_einternal>
7.99679

> <r_i_glide_emodel>
-81.4559

> <r_i_glide_energy>
-52.7644

> <r_i_glide_erotb>
0.487397

> <r_i_glide_esite>
0

> <r_i_glide_evdw>
-45.9184

> <r_i_glide_gscore>
-10.5337

> <r_i_glide_hbond>
-0.32

> <r_i_glide_ligand_efficiency>
-0.438906

> <r_i_glide_ligand_efficiency_ln>
-2.52121

> <r_i_glide_ligand_efficiency_sa>
-1.26602

> <r_i_glide_lipo>
-4.69372

> <r_i_glide_metal>
0

> <r_i_glide_rewards>
-2.68459

> <r_lp_Energy>
27.69

> <r_lp_tautomer_probability>
1

> <s_epik_cmdline>
J2VwaWtfcHl0aG9uJywgJy1waHQnLCAnMi4wJywgJy1waCcsICc3LjQnLCAnLXRuJywgJzgnLCAnLW1hJywgJzIwMCcsICctaW1hZScsICc8aW5maWxlLm1hZT4nLCAnLW9tYWUnLCAnPG91dGZpbGUubWFlPic=

> <s_epik_input>
RltDSF0oRilTKD1PKSg9TyljMVtjSF1bY0hdYyhjKENsKWMxW0NIMl1bT0hdKU9jMltjSF1jKEYpW2NIXWMoQ2wpW2NIXTI=

> <s_i_glide_gridfile>
hif2a-001-gridgen

> <s_lp_Force_Field>
OPLS3e

> <s_lp_Variant>
lig_hif2a_41-1

> <s_m_Source_File>
hif2ahif2a_dock_SP_confgen_100_lib.maegz

> <s_m_Source_Path>
D:\project\FEP\hif2a

> <s_m_entry_id>
515

> <s_m_entry_name>
hif2ahif2a_dock_SP_confgen_100_lib.63

> <s_m_subgroup_title>
hif2ahif2a_dock_SP_confgen_100_lib

> <s_m_subgroupid>
hif2ahif2a_dock_SP_confgen_100_lib

$$$$
