lig_hif2a_164
                    3D
 Schrodinger Suite 2024-1.
 39 41  0  0  1  0            999 V2000
   28.8187   -0.9897   -9.2661 C   0  0  0  0  0  0
   27.3990   -0.8466   -8.0919 S   0  0  0  0  0  0
   27.5982    0.3466   -7.2639 O   0  0  0  0  0  0
   27.2199   -2.1709   -7.4869 O   0  0  0  0  0  0
   25.9949   -0.5499   -9.1542 C   0  0  0  0  0  0
   24.7688   -1.0720   -8.7624 C   0  0  0  0  0  0
   23.6689   -1.0281   -9.6058 C   0  0  0  0  0  0
   23.7386   -0.3300  -10.8157 C   0  0  0  0  0  0
   22.6874   -0.2150  -11.6962 O   0  0  0  0  0  0
   21.4227   -0.4775  -11.2450 C   0  0  0  0  0  0
   20.8401   -1.7224  -11.4752 C   0  0  0  0  0  0
   19.5917   -2.0093  -10.9358 C   0  0  0  0  0  0
   19.0236   -3.2136  -11.1433 F   0  0  0  0  0  0
   18.9248   -1.0509  -10.1790 C   0  0  0  0  0  0
   19.4800    0.2152   -9.9867 C   0  0  0  0  0  0
   18.7733    1.2545   -9.2583 C   0  0  0  0  0  0
   18.2173    2.0829   -8.6749 N   0  0  0  0  0  0
   20.7451    0.4826  -10.4950 C   0  0  0  0  0  0
   24.9141    0.3435  -11.1329 C   0  0  0  0  0  0
   26.0711    0.1552  -10.3593 C   0  0  0  0  0  0
   27.2268    0.8927  -11.0123 C   0  0  1  0  0  0
   27.9469    0.0788  -11.9878 N   0  0  0  0  0  0
   26.4608    1.9668  -11.7218 C   0  0  0  0  0  0
   27.2142    2.4831  -12.6745 F   0  0  0  0  0  0
   26.1696    2.8830  -10.7965 F   0  0  0  0  0  0
   25.1921    1.3165  -12.2541 C   0  0  0  0  0  0
   29.6079   -1.5151   -8.7839 H   0  0  0  0  0  0
   28.4984   -1.5677  -10.1280 H   0  0  0  0  0  0
   29.2028    0.0012   -9.4838 H   0  0  0  0  0  0
   24.6711   -1.5166   -7.7978 H   0  0  0  0  0  0
   22.7621   -1.5228   -9.2996 H   0  0  0  0  0  0
   21.3688   -2.4766  -12.0352 H   0  0  0  0  0  0
   17.9943   -1.3252   -9.7282 H   0  0  0  0  0  0
   21.2187    1.4251  -10.2746 H   0  0  0  0  0  0
   27.8981    1.3818  -10.3063 H   0  0  0  0  0  0
   28.6519   -0.4867  -11.5401 H   0  0  0  0  0  0
   28.4550    0.7026  -12.6053 H   0  0  0  0  0  0
   25.3537    0.8051  -13.2038 H   0  0  0  0  0  0
   24.4184    2.0653  -12.3919 H   0  0  0  0  0  0
  1  2  1  0  0  0
  1 27  1  0  0  0
  1 28  1  0  0  0
  1 29  1  0  0  0
  2  3  2  0  0  0
  2  4  2  0  0  0
  2  5  1  0  0  0
  5 20  1  0  0  0
  5  6  2  0  0  0
  6  7  1  0  0  0
  6 30  1  0  0  0
  7  8  2  0  0  0
  7 31  1  0  0  0
  8  9  1  0  0  0
  8 19  1  0  0  0
  9 10  1  0  0  0
 10 18  1  0  0  0
 10 11  2  0  0  0
 11 12  1  0  0  0
 11 32  1  0  0  0
 12 13  1  0  0  0
 12 14  2  0  0  0
 14 15  1  0  0  0
 14 33  1  0  0  0
 15 16  1  0  0  0
 15 18  2  0  0  0
 16 17  3  0  0  0
 18 34  1  0  0  0
 19 26  1  0  0  0
 19 20  2  0  0  0
 20 21  1  0  0  0
 21 22  1  0  0  0
 21 23  1  0  0  0
 21 35  1  0  0  0
 22 36  1  0  0  0
 22 37  1  0  0  0
 23 24  1  0  0  0
 23 25  1  0  0  0
 23 26  1  0  0  0
 26 38  1  0  0  0
 26 39  1  0  0  0
M  END
> <Tot Q>
0

> <Source File Index>
328

> <i_f3d_flags>
0

> <subgroup collapsed>
0

> <Ionization Penalty>
0.0349

> <State Penalty>
0.0291

> <docking score>
-9.73976

> <glide emodel>
-57.8472

> <glide gscore>
-9.76885

> <tautomer probability>
1

> <Source File>
hif2ahif2a_dock_SP_confgen_100_lib.maegz

> <Source Path>
C:\Users\yujie\Desktop\FEPs

> <entry id>
4421

> <subgroup title>
hif2ahif2a_dock_SP_confgen_100_lib

> <subgroupid>
hif2ahif2a_dock_SP_confgen_100_lib

$$$$
