lig_hif2a_336
                    3D
 Schrodinger Suite 2024-1.
 37 39  0  0  1  0            999 V2000
   18.2029    2.0836   -8.6746 N   0  0  0  0  0  0
   18.7773    1.2547   -9.2379 C   0  0  0  0  0  0
   19.5041    0.2102   -9.9382 C   0  0  0  0  0  0
   18.9585   -1.0643  -10.1008 C   0  0  0  0  0  0
   19.6399   -2.0406  -10.8201 C   0  0  0  0  0  0
   19.0767   -3.2505  -11.0101 F   0  0  0  0  0  0
   20.8965   -1.7646  -11.3451 C   0  0  0  0  0  0
   21.4660   -0.5079  -11.1494 C   0  0  0  0  0  0
   22.7095   -0.2460  -11.6515 O   0  0  0  0  0  0
   23.8207   -0.3667  -10.8495 C   0  0  0  0  0  0
   23.8277   -0.9227   -9.5626 C   0  0  0  0  0  0
   25.0251   -1.0481   -8.8605 C   0  0  0  0  0  0
   26.2202   -0.5872   -9.4169 C   0  0  0  0  0  0
   27.7385   -0.8325   -8.5149 S   0  0  0  0  0  0
   28.0186    0.6930   -7.7394 N   0  0  0  0  0  0
   27.5068   -1.8365   -7.4760 O   0  0  0  0  0  0
   28.8189   -1.0339   -9.4756 O   0  0  0  0  0  0
   26.2024    0.0469  -10.6678 C   0  0  0  0  0  0
   25.0124    0.0916  -11.4021 C   0  0  0  0  0  0
   25.2731    0.6573  -12.7781 C   0  0  2  0  0  0
   25.6188   -0.3269  -13.6035 F   0  0  0  0  0  0
   26.5056    1.5013  -12.5241 C   0  0  2  0  0  0
   27.2188    1.6825  -13.6367 F   0  0  0  0  0  0
   27.3006    0.7602  -11.4474 C   0  0  1  0  0  0
   28.0388    1.6830  -10.6717 O   0  0  0  0  0  0
   20.7704    0.4785  -10.4473 C   0  0  0  0  0  0
   18.0186   -1.3258   -9.6603 H   0  0  0  0  0  0
   21.4362   -2.5312  -11.8792 H   0  0  0  0  0  0
   22.9183   -1.2982   -9.1179 H   0  0  0  0  0  0
   25.0249   -1.5132   -7.8842 H   0  0  0  0  0  0
   28.7890    0.6254   -7.0745 H   0  0  0  0  0  0
   28.2661    1.3941   -8.4459 H   0  0  0  0  0  0
   24.4483    1.2145  -13.2247 H   0  0  0  0  0  0
   26.1900    2.4832  -12.1690 H   0  0  0  0  0  0
   27.9662    0.0250  -11.9042 H   0  0  0  0  0  0
   28.6683    2.1317  -11.2580 H   0  0  0  0  0  0
   21.2183    1.4421  -10.2746 H   0  0  0  0  0  0
  1  2  3  0  0  0
  2  3  1  0  0  0
  3 26  1  0  0  0
  3  4  2  0  0  0
  4  5  1  0  0  0
  4 27  1  0  0  0
  5  6  1  0  0  0
  5  7  2  0  0  0
  7  8  1  0  0  0
  7 28  1  0  0  0
  8  9  1  0  0  0
  8 26  2  0  0  0
  9 10  1  0  0  0
 10 19  1  0  0  0
 10 11  2  0  0  0
 11 12  1  0  0  0
 11 29  1  0  0  0
 12 13  2  0  0  0
 12 30  1  0  0  0
 13 14  1  0  0  0
 13 18  1  0  0  0
 14 15  1  0  0  0
 14 16  2  0  0  0
 14 17  2  0  0  0
 15 31  1  0  0  0
 15 32  1  0  0  0
 18 24  1  0  0  0
 18 19  2  0  0  0
 19 20  1  0  0  0
 20 21  1  0  0  0
 20 22  1  0  0  0
 20 33  1  0  0  0
 22 23  1  0  0  0
 22 24  1  0  0  0
 22 34  1  0  0  0
 24 25  1  0  0  0
 24 35  1  0  0  0
 25 36  1  0  0  0
 26 37  1  0  0  0
M  END
> <i_epik_Tot_Q>
0

> <i_epik_Tot_abs_Q>
0

> <i_i_glide_confnum>
3

> <i_i_glide_lignum>
2

> <i_i_glide_posenum>
40

> <i_i_glide_rotatable_bonds>
4

> <i_lp_mmshare_version>
51139

> <i_m_Source_File_Index>
7

> <i_f3d_flags>
0

> <b_lp_Chiralities_Consistent>
1

> <b_m_subgroup_collapsed>
0

> <r_epik_Charging_Adjusted_Penalty>
0.00515571

> <r_epik_Ionization_Penalty>
0.0071

> <r_epik_Ionization_Penalty_Charging>
0

> <r_epik_Ionization_Penalty_Neutral>
0.0071

> <r_epik_State_Penalty>
0.0052

> <r_i_docking_score>
-11.2235

> <r_i_glide_ecoul>
-6.68099

> <r_i_glide_eff_state_penalty>
0.00515571

> <r_i_glide_einternal>
8.64554

> <r_i_glide_emodel>
-92.902

> <r_i_glide_energy>
-60.6727

> <r_i_glide_erotb>
0.263238

> <r_i_glide_esite>
0

> <r_i_glide_evdw>
-53.9917

> <r_i_glide_gscore>
-11.2286

> <r_i_glide_hbond>
0

> <r_i_glide_ligand_efficiency>
-0.431672

> <r_i_glide_ligand_efficiency_ln>
-2.6358

> <r_i_glide_ligand_efficiency_sa>
-1.27883

> <r_i_glide_lipo>
-4.41669

> <r_i_glide_metal>
0

> <r_i_glide_rewards>
-3.37345

> <r_lp_Energy>
22.6943

> <r_lp_tautomer_probability>
1

> <s_epik_cmdline>
J2VwaWtfcHl0aG9uJywgJy1waHQnLCAnMi4wJywgJy1waCcsICc3LjQnLCAnLXRuJywgJzgnLCAnLW1hJywgJzIwMCcsICctaW1hZScsICc8aW5maWxlLm1hZT4nLCAnLW9tYWUnLCAnPG91dGZpbGUubWFlPic=

> <s_epik_input>
TiNDYzFbY0hdYyhGKVtjSF1jKFtjSF0xKU9jKFtjSF1bY0hdYzJTKD1PKSg9TylbTkgyXSljKGMyMylbQ0BIXShGKVtDQEhdKEYpW0NASF0zW09IXQ==

> <s_i_glide_gridfile>
hif2a-001-gridgen

> <s_lp_Force_Field>
OPLS3e

> <s_lp_Variant>
lig_hif2a_336-1

> <s_m_Source_File>
hif2ahif2a_dock_SP_confgen_100_lib.maegz

> <s_m_Source_Path>
D:\project\FEP\hif2a

> <s_m_entry_id>
459

> <s_m_entry_name>
hif2ahif2a_dock_SP_confgen_100_lib.7

> <s_m_subgroup_title>
hif2ahif2a_dock_SP_confgen_100_lib

> <s_m_subgroupid>
hif2ahif2a_dock_SP_confgen_100_lib

$$$$
