lig_hif2a_7b
                    3D
 Schrodinger Suite 2024-1.
 40 42  0  0  1  0            999 V2000
   25.2196    0.3522  -13.7672 C   0  0  0  0  0  0
   25.3236    1.1802  -12.4918 C   0  0  2  0  0  0
   26.7285    1.7158  -12.2486 C   0  0  0  0  0  0
   27.4197    0.6801  -11.3724 C   0  0  1  0  0  0
   28.4185    1.3008  -10.5925 O   0  0  0  0  0  0
   26.2570    0.0828  -10.5804 C   0  0  0  0  0  0
   26.2292   -0.6477   -9.3818 C   0  0  0  0  0  0
   27.7103   -1.0209   -8.4594 S   0  0  0  0  0  0
   27.4015   -2.0978   -7.5112 O   0  0  0  0  0  0
   28.8040   -1.2035   -9.4187 O   0  0  0  0  0  0
   27.9255    0.6099   -7.5251 C   0  0  0  0  0  0
   27.4160    0.4834   -6.3001 F   0  0  0  0  0  0
   29.2188    0.8813   -7.4797 F   0  0  0  0  0  0
   25.0046   -1.0381   -8.8408 C   0  0  0  0  0  0
   23.8205   -0.8160   -9.5341 C   0  0  0  0  0  0
   23.8386   -0.1515  -10.7661 C   0  0  0  0  0  0
   22.7131    0.0829  -11.5326 O   0  0  0  0  0  0
   21.4713   -0.3232  -11.1060 C   0  0  0  0  0  0
   21.0182   -1.6214  -11.3515 C   0  0  0  0  0  0
   19.7547   -2.0115  -10.9098 C   0  0  0  0  0  0
   19.2785   -3.2426  -11.1888 F   0  0  0  0  0  0
   18.9658   -1.1255  -10.1839 C   0  0  0  0  0  0
   19.4038    0.1745   -9.9482 C   0  0  0  0  0  0
   18.4177    1.2902   -9.0749 Cl  0  0  0  0  0  0
   20.6463    0.5754  -10.4286 C   0  0  0  0  0  0
   25.0552    0.3510  -11.2503 C   0  0  0  0  0  0
   24.1765    0.0828  -13.8745 H   0  0  0  0  0  0
   25.8071   -0.5661  -13.7174 H   0  0  0  0  0  0
   25.5215    0.8934  -14.6621 H   0  0  0  0  0  0
   24.6375    2.0243  -12.5761 H   0  0  0  0  0  0
   27.2735    1.9619  -13.1607 H   0  0  0  0  0  0
   26.6381    2.6484  -11.6880 H   0  0  0  0  0  0
   27.8679   -0.0947  -11.9970 H   0  0  0  0  0  0
   28.9946    1.8028  -11.1858 H   0  0  0  0  0  0
   27.4237    1.4156   -8.0600 H   0  0  0  0  0  0
   24.9696   -1.5167   -7.8752 H   0  0  0  0  0  0
   22.8943   -1.1717   -9.1075 H   0  0  0  0  0  0
   21.6436   -2.3266  -11.8754 H   0  0  0  0  0  0
   18.0187   -1.4625   -9.8089 H   0  0  0  0  0  0
   20.9687    1.5904  -10.2745 H   0  0  0  0  0  0
  1  2  1  0  0  0
  1 27  1  0  0  0
  1 28  1  0  0  0
  1 29  1  0  0  0
  2 26  1  0  0  0
  2  3  1  0  0  0
  2 30  1  0  0  0
  3  4  1  0  0  0
  3 31  1  0  0  0
  3 32  1  0  0  0
  4  5  1  0  0  0
  4  6  1  0  0  0
  4 33  1  0  0  0
  5 34  1  0  0  0
  6 26  2  0  0  0
  6  7  1  0  0  0
  7  8  1  0  0  0
  7 14  2  0  0  0
  8  9  2  0  0  0
  8 10  2  0  0  0
  8 11  1  0  0  0
 11 12  1  0  0  0
 11 13  1  0  0  0
 11 35  1  0  0  0
 14 15  1  0  0  0
 14 36  1  0  0  0
 15 16  2  0  0  0
 15 37  1  0  0  0
 16 17  1  0  0  0
 16 26  1  0  0  0
 17 18  1  0  0  0
 18 25  1  0  0  0
 18 19  2  0  0  0
 19 20  1  0  0  0
 19 38  1  0  0  0
 20 21  1  0  0  0
 20 22  2  0  0  0
 22 23  1  0  0  0
 22 39  1  0  0  0
 23 24  1  0  0  0
 23 25  2  0  0  0
 25 40  1  0  0  0
M  END
> <Tot Q>
0

> <Source File Index>
56

> <i_f3d_flags>
0

> <subgroup collapsed>
0

> <Ionization Penalty>
0

> <State Penalty>
0

> <docking score>
-10.5699

> <glide emodel>
-80.5629

> <glide gscore>
-10.5699

> <tautomer probability>
1

> <Source File>
hif2ahif2a_dock_SP_confgen_100_lib.maegz

> <Source Path>
C:\Users\yujie\Desktop\FEPs

> <entry id>
4149

> <subgroup title>
hif2ahif2a_dock_SP_confgen_100_lib

> <subgroupid>
hif2ahif2a_dock_SP_confgen_100_lib

$$$$
