lig_hif2a_23
                    3D
 Schrodinger Suite 2024-1.
 38 40  0  0  1  0            999 V2000
   28.7347   -0.7108   -9.4495 O   0  0  0  0  0  0
   27.6303   -0.5930   -8.4952 S   0  0  0  0  0  0
   27.4382   -1.6638   -7.5123 O   0  0  0  0  0  0
   26.0920   -0.4014   -9.4198 C   0  0  0  0  0  0
   24.9077   -0.8670   -8.8500 C   0  0  0  0  0  0
   23.7031   -0.7881   -9.5432 C   0  0  0  0  0  0
   23.6630   -0.2347  -10.8290 C   0  0  0  0  0  0
   22.5303   -0.1147  -11.6036 O   0  0  0  0  0  0
   21.3127   -0.5429  -11.1476 C   0  0  0  0  0  0
   20.4718    0.3329  -10.4590 C   0  0  0  0  0  0
   19.2279   -0.1050  -10.0090 C   0  0  0  0  0  0
   18.4203    0.7396   -9.3291 F   0  0  0  0  0  0
   18.8189   -1.4114  -10.2716 C   0  0  0  0  0  0
   19.6438   -2.2731  -10.9855 C   0  0  0  0  0  0
   19.2184   -3.5164  -11.2801 F   0  0  0  0  0  0
   20.8984   -1.8480  -11.4063 C   0  0  0  0  0  0
   24.8344    0.2719  -11.3897 C   0  0  0  0  0  0
   26.0420    0.1927  -10.6901 C   0  0  0  0  0  0
   27.1629    0.7335  -11.5441 C   0  0  1  0  0  0
   28.0130   -0.3164  -11.9344 O   0  0  0  0  0  0
   26.4567    1.4193  -12.7230 C   0  0  1  0  0  0
   27.1386    1.2830  -13.9488 O   0  0  0  0  0  0
   25.0431    0.8513  -12.7715 C   0  0  0  0  0  0
   27.8164    1.0596   -7.5964 C   0  0  0  0  0  0
   27.2193    0.9649   -6.4089 F   0  0  0  0  0  0
   27.2644    2.0244   -8.3330 F   0  0  0  0  0  0
   24.9212   -1.3180   -7.8736 H   0  0  0  0  0  0
   22.8153   -1.1849   -9.0793 H   0  0  0  0  0  0
   20.7821    1.3489  -10.2745 H   0  0  0  0  0  0
   17.8649   -1.7716   -9.9280 H   0  0  0  0  0  0
   21.5474   -2.5299  -11.9317 H   0  0  0  0  0  0
   27.7525    1.4755  -11.0015 H   0  0  0  0  0  0
   28.4791   -0.6176  -11.1380 H   0  0  0  0  0  0
   26.3882    2.4826  -12.4879 H   0  0  0  0  0  0
   27.7043    0.5107  -13.8471 H   0  0  0  0  0  0
   24.9642    0.0565  -13.5153 H   0  0  0  0  0  0
   24.3249    1.6250  -13.0296 H   0  0  0  0  0  0
   28.8753    1.2623   -7.4743 H   0  0  0  0  0  0
  1  2  2  0  0  0
  2  3  2  0  0  0
  2  4  1  0  0  0
  2 24  1  0  0  0
  4 18  1  0  0  0
  4  5  2  0  0  0
  5  6  1  0  0  0
  5 27  1  0  0  0
  6  7  2  0  0  0
  6 28  1  0  0  0
  7  8  1  0  0  0
  7 17  1  0  0  0
  8  9  1  0  0  0
  9 16  1  0  0  0
  9 10  2  0  0  0
 10 11  1  0  0  0
 10 29  1  0  0  0
 11 12  1  0  0  0
 11 13  2  0  0  0
 13 14  1  0  0  0
 13 30  1  0  0  0
 14 15  1  0  0  0
 14 16  2  0  0  0
 16 31  1  0  0  0
 17 23  1  0  0  0
 17 18  2  0  0  0
 18 19  1  0  0  0
 19 20  1  0  0  0
 19 21  1  0  0  0
 19 32  1  0  0  0
 20 33  1  0  0  0
 21 22  1  0  0  0
 21 23  1  0  0  0
 21 34  1  0  0  0
 22 35  1  0  0  0
 23 36  1  0  0  0
 23 37  1  0  0  0
 24 25  1  0  0  0
 24 26  1  0  0  0
 24 38  1  0  0  0
M  END
> <Tot Q>
0

> <Source File Index>
144

> <i_f3d_flags>
0

> <subgroup collapsed>
0

> <Ionization Penalty>
0

> <State Penalty>
0

> <docking score>
-10.1843

> <glide emodel>
-75.0153

> <glide gscore>
-10.1843

> <tautomer probability>
1

> <Source File>
hif2ahif2a_dock_SP_confgen_100_lib.maegz

> <Source Path>
C:\Users\yujie\Desktop\FEPs

> <entry id>
4237

> <subgroup title>
hif2ahif2a_dock_SP_confgen_100_lib

> <subgroupid>
hif2ahif2a_dock_SP_confgen_100_lib

$$$$
