lig_hif2a_254
                    3D
 Schrodinger Suite 2024-1.
 40 42  0  0  1  0            999 V2000
   27.6683    1.9743   -7.8878 C   0  0  0  0  0  0
   27.6188    0.6157   -7.3210 N   0  0  2  0  0  0
   27.6585   -0.7367   -8.4292 S   0  0  0  0  0  0
   27.5510   -1.9620   -7.6305 O   0  0  0  0  0  0
   28.8092   -0.5321   -9.3104 O   0  0  0  0  0  0
   26.1328   -0.5812   -9.3793 C   0  0  0  0  0  0
   24.9587   -1.0884   -8.8210 C   0  0  0  0  0  0
   23.7581   -1.0824   -9.5298 C   0  0  0  0  0  0
   23.7200   -0.5597  -10.8262 C   0  0  0  0  0  0
   22.6192   -0.5370  -11.6468 O   0  0  0  0  0  0
   21.3717   -0.7125  -11.1282 C   0  0  0  0  0  0
   20.7254   -1.9272  -11.3269 C   0  0  0  0  0  0
   19.4635   -2.1330  -10.7861 C   0  0  0  0  0  0
   18.8272   -3.3057  -10.9735 F   0  0  0  0  0  0
   18.8493   -1.1218  -10.0569 C   0  0  0  0  0  0
   19.4654    0.1232   -9.9095 C   0  0  0  0  0  0
   18.7978    1.2156   -9.2251 C   0  0  0  0  0  0
   18.2703    2.0831   -8.6746 N   0  0  0  0  0  0
   20.7428    0.3171  -10.4269 C   0  0  0  0  0  0
   24.8660   -0.0069  -11.3742 C   0  0  0  0  0  0
   26.0696   -0.0021  -10.6543 C   0  0  0  0  0  0
   27.1465    0.6380  -11.4977 C   0  0  1  0  0  0
   28.0188   -0.3169  -12.0183 O   0  0  0  0  0  0
   26.3347    1.3245  -12.5901 C   0  0  0  0  0  0
   26.9923    1.5176  -13.7347 F   0  0  0  0  0  0
   25.9465    2.4831  -12.0881 F   0  0  0  0  0  0
   25.0639    0.5290  -12.7733 C   0  0  0  0  0  0
   27.6182    2.6948   -7.0746 H   0  0  0  0  0  0
   28.6047    2.1194   -8.4269 H   0  0  0  0  0  0
   26.8188    2.1462   -8.5501 H   0  0  0  0  0  0
   26.9864    0.5008   -6.5258 H   0  0  0  0  0  0
   24.9873   -1.5169   -7.8388 H   0  0  0  0  0  0
   22.8750   -1.5169   -9.0862 H   0  0  0  0  0  0
   21.2147   -2.7169  -11.8746 H   0  0  0  0  0  0
   17.9045   -1.3420   -9.6052 H   0  0  0  0  0  0
   21.2507    1.2574  -10.2746 H   0  0  0  0  0  0
   27.7204    1.3755  -10.9333 H   0  0  0  0  0  0
   28.8338    0.1243  -12.2746 H   0  0  0  0  0  0
   25.1955   -0.2888  -13.4830 H   0  0  0  0  0  0
   24.2364    1.1391  -13.1366 H   0  0  0  0  0  0
  1  2  1  0  0  0
  1 28  1  0  0  0
  1 29  1  0  0  0
  1 30  1  0  0  0
  2  3  1  0  0  0
  2 31  1  0  0  0
  3  4  2  0  0  0
  3  5  2  0  0  0
  3  6  1  0  0  0
  6 21  1  0  0  0
  6  7  2  0  0  0
  7  8  1  0  0  0
  7 32  1  0  0  0
  8  9  2  0  0  0
  8 33  1  0  0  0
  9 10  1  0  0  0
  9 20  1  0  0  0
 10 11  1  0  0  0
 11 19  1  0  0  0
 11 12  2  0  0  0
 12 13  1  0  0  0
 12 34  1  0  0  0
 13 14  1  0  0  0
 13 15  2  0  0  0
 15 16  1  0  0  0
 15 35  1  0  0  0
 16 17  1  0  0  0
 16 19  2  0  0  0
 17 18  3  0  0  0
 19 36  1  0  0  0
 20 27  1  0  0  0
 20 21  2  0  0  0
 21 22  1  0  0  0
 22 23  1  0  0  0
 22 24  1  0  0  0
 22 37  1  0  0  0
 23 38  1  0  0  0
 24 25  1  0  0  0
 24 26  1  0  0  0
 24 27  1  0  0  0
 27 39  1  0  0  0
 27 40  1  0  0  0
M  END
> <i_epik_Tot_Q>
0

> <i_epik_Tot_abs_Q>
0

> <i_i_glide_confnum>
2

> <i_i_glide_lignum>
27

> <i_i_glide_posenum>
60

> <i_i_glide_rotatable_bonds>
5

> <i_lp_mmshare_version>
51139

> <i_m_Source_File_Index>
108

> <i_f3d_flags>
0

> <b_lp_Chiralities_Consistent>
1

> <b_m_subgroup_collapsed>
0

> <r_epik_Charging_Adjusted_Penalty>
0

> <r_epik_Ionization_Penalty>
0.0016

> <r_epik_Ionization_Penalty_Charging>
0

> <r_epik_Ionization_Penalty_Neutral>
0.0016

> <r_epik_State_Penalty>
0

> <r_i_docking_score>
-10.3169

> <r_i_glide_ecoul>
-3.15009

> <r_i_glide_eff_state_penalty>
0

> <r_i_glide_einternal>
6.86811

> <r_i_glide_emodel>
-72.2606

> <r_i_glide_energy>
-50.7948

> <r_i_glide_erotb>
0.370232

> <r_i_glide_esite>
0

> <r_i_glide_evdw>
-47.6448

> <r_i_glide_gscore>
-10.3169

> <r_i_glide_hbond>
0

> <r_i_glide_ligand_efficiency>
-0.382109

> <r_i_glide_ligand_efficiency_ln>
-2.40161

> <r_i_glide_ligand_efficiency_sa>
-1.14633

> <r_i_glide_lipo>
-4.63497

> <r_i_glide_metal>
0

> <r_i_glide_rewards>
-3.19745

> <r_lp_Energy>
29.3859

> <r_lp_tautomer_probability>
1

> <s_epik_cmdline>
J2VwaWtfcHl0aG9uJywgJy1waHQnLCAnMi4wJywgJy1waCcsICc3LjQnLCAnLXRuJywgJzgnLCAnLW1hJywgJzIwMCcsICctaW1hZScsICc8aW5maWxlLm1hZT4nLCAnLW9tYWUnLCAnPG91dGZpbGUubWFlPic=

> <s_epik_input>
RkMoRikoW0NIMl0xKVtDQEhdKFtPSF0pYyhjMTIpYyhTKD1PKSg9TylbTkhdW0NIM10pW2NIXVtjSF1jMk9jM1tjSF1jKEYpW2NIXWMoQyNOKVtjSF0z

> <s_i_glide_gridfile>
hif2a-001-gridgen

> <s_lp_Force_Field>
OPLS3e

> <s_lp_Variant>
lig_hif2a_254-1

> <s_m_Source_File>
hif2ahif2a_dock_SP_confgen_100_lib.maegz

> <s_m_Source_Path>
D:\project\FEP\hif2a

> <s_m_entry_id>
560

> <s_m_entry_name>
hif2ahif2a_dock_SP_confgen_100_lib.108

> <s_m_subgroup_title>
hif2ahif2a_dock_SP_confgen_100_lib

> <s_m_subgroupid>
hif2ahif2a_dock_SP_confgen_100_lib

$$$$
