lig_hif2a_235
                    3D
 Schrodinger Suite 2024-1.
 37 39  0  0  1  0            999 V2000
   18.0189    2.0831   -8.6746 N   0  0  0  0  0  0
   18.5550    1.2339   -9.2513 C   0  0  0  0  0  0
   19.2505    0.1762   -9.9728 C   0  0  0  0  0  0
   18.8189   -1.1555  -10.0063 C   0  0  0  0  0  0
   19.4748   -2.1388  -10.6756 N   0  0  0  0  0  0
   20.6264   -1.8078  -11.3106 C   0  0  0  0  0  0
   21.1489   -0.5137  -11.2885 C   0  0  0  0  0  0
   22.3740   -0.2331  -11.8282 O   0  0  0  0  0  0
   23.5002   -0.3170  -11.0349 C   0  0  0  0  0  0
   23.4957   -0.7020   -9.6876 C   0  0  0  0  0  0
   24.6893   -0.8402   -8.9909 C   0  0  0  0  0  0
   25.9075   -0.6400   -9.6398 C   0  0  0  0  0  0
   27.4149   -1.0460   -8.7608 S   0  0  0  0  0  0
   27.0742   -2.0625   -7.7620 O   0  0  0  0  0  0
   28.4196   -1.3786   -9.7708 O   0  0  0  0  0  0
   27.8927    0.5684   -7.8719 C   0  0  0  0  0  0
   29.2187    0.6644   -7.8754 F   0  0  0  0  0  0
   27.3477    1.6057   -8.5057 F   0  0  0  0  0  0
   27.4356    0.5057   -6.6214 F   0  0  0  0  0  0
   25.9205   -0.1666  -10.9623 C   0  0  0  0  0  0
   24.7094    0.0069  -11.6461 C   0  0  0  0  0  0
   24.9339    0.4680  -13.0640 C   0  0  0  0  0  0
   26.4165    0.7703  -13.1100 C   0  0  0  0  0  0
   26.9492    0.3332  -14.2485 F   0  0  0  0  0  0
   26.5355    2.0831  -13.0745 F   0  0  0  0  0  0
   27.0945    0.1841  -11.8655 C   0  0  1  0  0  0
   28.0188    1.0598  -11.2283 O   0  0  0  0  0  0
   20.4341    0.4852  -10.6306 C   0  0  0  0  0  0
   17.9498   -1.4894   -9.4746 H   0  0  0  0  0  0
   21.1574   -2.6090  -11.8043 H   0  0  0  0  0  0
   22.5712   -0.9221   -9.1800 H   0  0  0  0  0  0
   24.6609   -1.1437   -7.9550 H   0  0  0  0  0  0
   24.6991   -0.3172  -13.7733 H   0  0  0  0  0  0
   24.3350    1.3386  -13.3310 H   0  0  0  0  0  0
   27.6107   -0.7328  -12.1479 H   0  0  0  0  0  0
   28.5750    1.5086  -11.8780 H   0  0  0  0  0  0
   20.8188    1.4884  -10.5844 H   0  0  0  0  0  0
  1  2  3  0  0  0
  2  3  1  0  0  0
  3 28  1  0  0  0
  3  4  2  0  0  0
  4  5  1  0  0  0
  4 29  1  0  0  0
  5  6  2  0  0  0
  6  7  1  0  0  0
  6 30  1  0  0  0
  7  8  1  0  0  0
  7 28  2  0  0  0
  8  9  1  0  0  0
  9 21  1  0  0  0
  9 10  2  0  0  0
 10 11  1  0  0  0
 10 31  1  0  0  0
 11 12  2  0  0  0
 11 32  1  0  0  0
 12 13  1  0  0  0
 12 20  1  0  0  0
 13 14  2  0  0  0
 13 15  2  0  0  0
 13 16  1  0  0  0
 16 17  1  0  0  0
 16 18  1  0  0  0
 16 19  1  0  0  0
 20 26  1  0  0  0
 20 21  2  0  0  0
 21 22  1  0  0  0
 22 23  1  0  0  0
 22 33  1  0  0  0
 22 34  1  0  0  0
 23 24  1  0  0  0
 23 25  1  0  0  0
 23 26  1  0  0  0
 26 27  1  0  0  0
 26 35  1  0  0  0
 27 36  1  0  0  0
 28 37  1  0  0  0
M  END
> <i_epik_Tot_Q>
0

> <i_epik_Tot_abs_Q>
0

> <i_i_glide_confnum>
10

> <i_i_glide_lignum>
10

> <i_i_glide_posenum>
298

> <i_i_glide_rotatable_bonds>
5

> <i_lp_mmshare_version>
51139

> <i_m_Source_File_Index>
50

> <i_f3d_flags>
0

> <b_lp_Chiralities_Consistent>
1

> <b_m_subgroup_collapsed>
0

> <r_epik_Charging_Adjusted_Penalty>
0.000802737

> <r_epik_Ionization_Penalty>
0.0012

> <r_epik_Ionization_Penalty_Charging>
0

> <r_epik_Ionization_Penalty_Neutral>
0.0012

> <r_epik_State_Penalty>
0.0008

> <r_i_docking_score>
-10.6217

> <r_i_glide_ecoul>
-7.03361

> <r_i_glide_eff_state_penalty>
0.000802737

> <r_i_glide_einternal>
6.95631

> <r_i_glide_emodel>
-90.7138

> <r_i_glide_energy>
-60.2919

> <r_i_glide_erotb>
0.336087

> <r_i_glide_esite>
0

> <r_i_glide_evdw>
-53.2583

> <r_i_glide_gscore>
-10.6225

> <r_i_glide_hbond>
0

> <r_i_glide_ligand_efficiency>
-0.379348

> <r_i_glide_ligand_efficiency_ln>
-2.45181

> <r_i_glide_ligand_efficiency_sa>
-1.15192

> <r_i_glide_lipo>
-4.31645

> <r_i_glide_metal>
0

> <r_i_glide_rewards>
-2.92422

> <r_lp_Energy>
35.3057

> <r_lp_tautomer_probability>
1

> <s_epik_cmdline>
J2VwaWtfcHl0aG9uJywgJy1waHQnLCAnMi4wJywgJy1waCcsICc3LjQnLCAnLXRuJywgJzgnLCAnLW1hJywgJzIwMCcsICctaW1hZScsICc8aW5maWxlLm1hZT4nLCAnLW9tYWUnLCAnPG91dGZpbGUubWFlPic=

> <s_epik_input>
TiNDYzFbY0hdbltjSF1jKFtjSF0xKU9jKFtjSF1bY0hdYzJTKD1PKSg9TylDKEYpKEYpRiljKGMyMylbQ0gyXUMoRikoRilbQ0BIXTNbT0hd

> <s_i_glide_gridfile>
hif2a-001-gridgen

> <s_lp_Force_Field>
OPLS3e

> <s_lp_Variant>
lig_hif2a_235-1

> <s_m_Source_File>
hif2ahif2a_dock_SP_confgen_100_lib.maegz

> <s_m_Source_Path>
D:\project\FEP\hif2a

> <s_m_entry_id>
502

> <s_m_entry_name>
hif2ahif2a_dock_SP_confgen_100_lib.50

> <s_m_subgroup_title>
hif2ahif2a_dock_SP_confgen_100_lib

> <s_m_subgroupid>
hif2ahif2a_dock_SP_confgen_100_lib

$$$$
