lig_hif2a_224
                    3D
 Schrodinger Suite 2024-1.
 37 39  0  0  1  0            999 V2000
   18.2055   -2.3287  -10.6156 C   0  0  0  0  0  0
   19.3627   -1.4623  -10.6625 N   0  0  0  0  0  0
   20.5724   -1.7310  -11.2470 C   0  0  0  0  0  0
   21.2942   -0.5616  -11.1346 C   0  0  0  0  0  0
   22.5395   -0.3133  -11.6386 O   0  0  0  0  0  0
   23.6673   -0.4624  -10.8603 C   0  0  0  0  0  0
   23.6789   -0.9397   -9.5483 C   0  0  0  0  0  0
   24.8834   -1.1029   -8.8689 C   0  0  0  0  0  0
   26.0945   -0.7503   -9.4673 C   0  0  0  0  0  0
   27.6116   -1.0216   -8.5324 S   0  0  0  0  0  0
   27.3350   -2.0795   -7.5534 O   0  0  0  0  0  0
   28.7010   -1.2235   -9.4891 O   0  0  0  0  0  0
   27.9054    0.6220   -7.6172 C   0  0  0  0  0  0
   27.5071    0.4834   -6.3529 F   0  0  0  0  0  0
   29.2080    0.8831   -7.6685 F   0  0  0  0  0  0
   27.2187    1.5943   -8.2153 F   0  0  0  0  0  0
   26.0857   -0.2218  -10.7695 C   0  0  0  0  0  0
   24.8720   -0.1129  -11.4648 C   0  0  0  0  0  0
   25.1060    0.2385  -12.9115 C   0  0  0  0  0  0
   26.5265    0.7628  -12.9123 C   0  0  0  0  0  0
   27.1735    0.4254  -14.0243 F   0  0  0  0  0  0
   26.4247    2.0834  -12.8787 F   0  0  0  0  0  0
   27.2346    0.2600  -11.6431 C   0  0  1  0  0  0
   28.0188    1.2525  -10.9953 O   0  0  0  0  0  0
   20.4272    0.3401  -10.5060 C   0  0  0  0  0  0
   19.2627   -0.1986  -10.2233 N   0  0  0  0  0  0
   18.5378   -3.3666  -10.6414 H   0  0  0  0  0  0
   17.6247   -2.1516   -9.7078 H   0  0  0  0  0  0
   17.5901   -2.1308  -11.4904 H   0  0  0  0  0  0
   20.7955   -2.6897  -11.6936 H   0  0  0  0  0  0
   22.7616   -1.2371   -9.0746 H   0  0  0  0  0  0
   24.8734   -1.5147   -7.8747 H   0  0  0  0  0  0
   24.3856    0.9501  -13.3172 H   0  0  0  0  0  0
   25.0294   -0.6697  -13.5061 H   0  0  0  0  0  0
   27.8633   -0.5951  -11.8945 H   0  0  0  0  0  0
   28.5678    1.7238  -11.6382 H   0  0  0  0  0  0
   20.6402    1.3744  -10.2840 H   0  0  0  0  0  0
  1  2  1  0  0  0
  1 27  1  0  0  0
  1 28  1  0  0  0
  1 29  1  0  0  0
  2 26  1  0  0  0
  2  3  1  0  0  0
  3  4  2  0  0  0
  3 30  1  0  0  0
  4  5  1  0  0  0
  4 25  1  0  0  0
  5  6  1  0  0  0
  6 18  1  0  0  0
  6  7  2  0  0  0
  7  8  1  0  0  0
  7 31  1  0  0  0
  8  9  2  0  0  0
  8 32  1  0  0  0
  9 10  1  0  0  0
  9 17  1  0  0  0
 10 11  2  0  0  0
 10 12  2  0  0  0
 10 13  1  0  0  0
 13 14  1  0  0  0
 13 15  1  0  0  0
 13 16  1  0  0  0
 17 23  1  0  0  0
 17 18  2  0  0  0
 18 19  1  0  0  0
 19 20  1  0  0  0
 19 33  1  0  0  0
 19 34  1  0  0  0
 20 21  1  0  0  0
 20 22  1  0  0  0
 20 23  1  0  0  0
 23 24  1  0  0  0
 23 35  1  0  0  0
 24 36  1  0  0  0
 25 26  2  0  0  0
 25 37  1  0  0  0
M  END
> <i_epik_Tot_Q>
0

> <i_epik_Tot_abs_Q>
0

> <i_i_glide_confnum>
6

> <i_i_glide_lignum>
16

> <i_i_glide_posenum>
54

> <i_i_glide_rotatable_bonds>
5

> <i_lp_mmshare_version>
51139

> <i_m_Source_File_Index>
368

> <i_f3d_flags>
0

> <b_lp_Chiralities_Consistent>
1

> <b_m_subgroup_collapsed>
0

> <r_epik_Charging_Adjusted_Penalty>
0.000802737

> <r_epik_Ionization_Penalty>
0.0012

> <r_epik_Ionization_Penalty_Charging>
0

> <r_epik_Ionization_Penalty_Neutral>
0.0012

> <r_epik_State_Penalty>
0.0008

> <r_i_docking_score>
-9.66662

> <r_i_glide_ecoul>
-5.80904

> <r_i_glide_eff_state_penalty>
0.000802737

> <r_i_glide_einternal>
5.98866

> <r_i_glide_emodel>
-76.8296

> <r_i_glide_energy>
-52.8664

> <r_i_glide_erotb>
0.370317

> <r_i_glide_esite>
0

> <r_i_glide_evdw>
-47.0574

> <r_i_glide_gscore>
-9.66742

> <r_i_glide_hbond>
0

> <r_i_glide_ligand_efficiency>
-0.371793

> <r_i_glide_ligand_efficiency_ln>
-2.27017

> <r_i_glide_ligand_efficiency_sa>
-1.10144

> <r_i_glide_lipo>
-4.23818

> <r_i_glide_metal>
0

> <r_i_glide_rewards>
-2.57533

> <r_lp_Energy>
26.4889

> <r_lp_tautomer_probability>
1

> <s_epik_cmdline>
J2VwaWtfcHl0aG9uJywgJy1waHQnLCAnMi4wJywgJy1waCcsICc3LjQnLCAnLXRuJywgJzgnLCAnLW1hJywgJzIwMCcsICctaW1hZScsICc8aW5maWxlLm1hZT4nLCAnLW9tYWUnLCAnPG91dGZpbGUubWFlPic=

> <s_epik_input>
W0NIM11uMVtjSF1jKFtjSF1uMSlPYyhbY0hdW2NIXWMyUyg9TykoPU8pQyhGKShGKUYpYyhjMjMpW0NIMl1DKEYpKEYpW0NASF0zW09IXQ==

> <s_i_glide_gridfile>
hif2a-001-gridgen

> <s_lp_Force_Field>
OPLS3e

> <s_lp_Variant>
lig_hif2a_224-1

> <s_m_Source_File>
hif2ahif2a_dock_SP_confgen_100_lib.maegz

> <s_m_Source_Path>
D:\project\FEP\hif2a

> <s_m_entry_id>
820

> <s_m_entry_name>
hif2ahif2a_dock_SP_confgen_100_lib.368

> <s_m_subgroup_title>
hif2ahif2a_dock_SP_confgen_100_lib

> <s_m_subgroupid>
hif2ahif2a_dock_SP_confgen_100_lib

$$$$
