lig_hif2a_251
                    3D
 Schrodinger Suite 2024-1.
 39 41  0  0  1  0            999 V2000
   27.8369    1.7169   -7.8944 C   0  0  0  0  0  0
   27.6187    0.4011   -7.2675 N   0  0  2  0  0  0
   27.4824   -0.9932   -8.3200 S   0  0  0  0  0  0
   28.6470   -0.9775   -9.2084 O   0  0  0  0  0  0
   27.2192   -2.1645   -7.4774 O   0  0  0  0  0  0
   25.9876   -0.6641   -9.2797 C   0  0  0  0  0  0
   24.7555   -1.0558   -8.7615 C   0  0  0  0  0  0
   23.5844   -0.8957   -9.4944 C   0  0  0  0  0  0
   23.6165   -0.3169  -10.7668 C   0  0  0  0  0  0
   22.5187   -0.1098  -11.5728 O   0  0  0  0  0  0
   21.2831   -0.5323  -11.1707 C   0  0  0  0  0  0
   20.4448    0.3338  -10.4696 C   0  0  0  0  0  0
   19.2139   -0.1187  -10.0046 C   0  0  0  0  0  0
   18.4188    0.7118   -9.2949 F   0  0  0  0  0  0
   18.8098   -1.4261  -10.2747 C   0  0  0  0  0  0
   19.6272   -2.2724  -11.0164 C   0  0  0  0  0  0
   19.2126   -3.5168  -11.3171 F   0  0  0  0  0  0
   20.8717   -1.8333  -11.4500 C   0  0  0  0  0  0
   24.8283    0.1390  -11.2691 C   0  0  0  0  0  0
   26.0084   -0.0444  -10.5348 C   0  0  0  0  0  0
   27.1810    0.4032  -11.3582 C   0  0  1  0  0  0
   27.8193   -0.7165  -11.8745 O   0  0  0  0  0  0
   26.5357    1.2684  -12.4323 C   0  0  0  0  0  0
   27.2110    1.3099  -13.5832 F   0  0  0  0  0  0
   26.4767    2.4830  -11.9108 F   0  0  0  0  0  0
   25.1135    0.7655  -12.6176 C   0  0  0  0  0  0
   27.0524    1.9324   -8.6209 H   0  0  0  0  0  0
   28.8177    1.7476   -8.3713 H   0  0  0  0  0  0
   27.8019    2.4833   -7.1240 H   0  0  0  0  0  0
   26.9592    0.3964   -6.4868 H   0  0  0  0  0  0
   24.7005   -1.5168   -7.7975 H   0  0  0  0  0  0
   22.6585   -1.2445   -9.0747 H   0  0  0  0  0  0
   20.7574    1.3472  -10.2738 H   0  0  0  0  0  0
   17.8651   -1.7976   -9.9161 H   0  0  0  0  0  0
   21.5215   -2.5072  -11.9848 H   0  0  0  0  0  0
   27.8967    0.9895  -10.7795 H   0  0  0  0  0  0
   28.7698   -0.5872  -11.8037 H   0  0  0  0  0  0
   25.0657    0.0152  -13.4086 H   0  0  0  0  0  0
   24.4274    1.5721  -12.8791 H   0  0  0  0  0  0
  1  2  1  0  0  0
  1 27  1  0  0  0
  1 28  1  0  0  0
  1 29  1  0  0  0
  2  3  1  0  0  0
  2 30  1  0  0  0
  3  4  2  0  0  0
  3  5  2  0  0  0
  3  6  1  0  0  0
  6 20  1  0  0  0
  6  7  2  0  0  0
  7  8  1  0  0  0
  7 31  1  0  0  0
  8  9  2  0  0  0
  8 32  1  0  0  0
  9 10  1  0  0  0
  9 19  1  0  0  0
 10 11  1  0  0  0
 11 18  1  0  0  0
 11 12  2  0  0  0
 12 13  1  0  0  0
 12 33  1  0  0  0
 13 14  1  0  0  0
 13 15  2  0  0  0
 15 16  1  0  0  0
 15 34  1  0  0  0
 16 17  1  0  0  0
 16 18  2  0  0  0
 18 35  1  0  0  0
 19 26  1  0  0  0
 19 20  2  0  0  0
 20 21  1  0  0  0
 21 22  1  0  0  0
 21 23  1  0  0  0
 21 36  1  0  0  0
 22 37  1  0  0  0
 23 24  1  0  0  0
 23 25  1  0  0  0
 23 26  1  0  0  0
 26 38  1  0  0  0
 26 39  1  0  0  0
M  END
> <i_epik_Tot_Q>
0

> <i_epik_Tot_abs_Q>
0

> <i_i_glide_confnum>
11

> <i_i_glide_lignum>
44

> <i_i_glide_posenum>
264

> <i_i_glide_rotatable_bonds>
5

> <i_lp_mmshare_version>
51139

> <i_m_Source_File_Index>
294

> <i_f3d_flags>
0

> <b_lp_Chiralities_Consistent>
1

> <b_m_subgroup_collapsed>
0

> <r_epik_Charging_Adjusted_Penalty>
0

> <r_epik_Ionization_Penalty>
0.0016

> <r_epik_Ionization_Penalty_Charging>
0

> <r_epik_Ionization_Penalty_Neutral>
0.0016

> <r_epik_State_Penalty>
0

> <r_i_docking_score>
-9.83678

> <r_i_glide_ecoul>
-2.02858

> <r_i_glide_eff_state_penalty>
0

> <r_i_glide_einternal>
7.10978

> <r_i_glide_emodel>
-66.0834

> <r_i_glide_energy>
-45.3034

> <r_i_glide_erotb>
0.382256

> <r_i_glide_esite>
0

> <r_i_glide_evdw>
-43.2748

> <r_i_glide_gscore>
-9.83678

> <r_i_glide_hbond>
0

> <r_i_glide_ligand_efficiency>
-0.378338

> <r_i_glide_ligand_efficiency_ln>
-2.31014

> <r_i_glide_ligand_efficiency_sa>
-1.12082

> <r_i_glide_lipo>
-4.59048

> <r_i_glide_metal>
0

> <r_i_glide_rewards>
-3.16053

> <r_lp_Energy>
26.5132

> <r_lp_tautomer_probability>
1

> <s_epik_cmdline>
J2VwaWtfcHl0aG9uJywgJy1waHQnLCAnMi4wJywgJy1waCcsICc3LjQnLCAnLXRuJywgJzgnLCAnLW1hJywgJzIwMCcsICctaW1hZScsICc8aW5maWxlLm1hZT4nLCAnLW9tYWUnLCAnPG91dGZpbGUubWFlPic=

> <s_epik_input>
RkMoRikoW0NIMl0xKVtDQEhdKFtPSF0pYyhjMTIpYyhTKD1PKSg9TylbTkhdW0NIM10pW2NIXVtjSF1jMk9jM1tjSF1jKEYpW2NIXWMoRilbY0hdMw==

> <s_i_glide_gridfile>
hif2a-001-gridgen

> <s_lp_Force_Field>
OPLS3e

> <s_lp_Variant>
lig_hif2a_251-1

> <s_m_Source_File>
hif2ahif2a_dock_SP_confgen_100_lib.maegz

> <s_m_Source_Path>
D:\project\FEP\hif2a

> <s_m_entry_id>
746

> <s_m_entry_name>
hif2ahif2a_dock_SP_confgen_100_lib.294

> <s_m_subgroup_title>
hif2ahif2a_dock_SP_confgen_100_lib

> <s_m_subgroupid>
hif2ahif2a_dock_SP_confgen_100_lib

$$$$
