lig36
                    3D
 Schrodinger Suite 2023-4.
 41 44  0  0  1  0            999 V2000
   41.7134  -29.4454  -20.1383 C   0  0  0  0  0  0
   41.0174  -29.3462  -18.7804 C   0  0  2  0  0  0
   42.0564  -29.2392  -17.6214 C   0  0  0  0  0  0
   42.6821  -30.5525  -17.3383 N   0  0  0  0  0  0
   42.0334  -31.7434  -17.2922 C   0  0  0  0  0  0
   42.6253  -32.7622  -16.9389 O   0  0  0  0  0  0
   40.6632  -31.6121  -17.7384 C   0  0  0  0  0  0
   39.6796  -32.5657  -17.6232 N   0  0  0  0  0  0
   38.5340  -32.1753  -18.2838 C   0  0  0  0  0  0
   37.2950  -32.8049  -18.4187 C   0  0  0  0  0  0
   36.3432  -32.1647  -19.2115 C   0  0  0  0  0  0
   36.5935  -30.9605  -19.8854 C   0  0  0  0  0  0
   35.5077  -30.3629  -20.7692 C   0  0  0  0  0  0
   34.4452  -30.9657  -20.9341 O   0  0  0  0  0  0
   35.7917  -29.1702  -21.3382 N   0  0  0  0  0  0
   35.0243  -28.3780  -22.2133 C   0  0  0  0  0  0
   35.6188  -27.1813  -22.6217 C   0  0  0  0  0  0
   34.9504  -26.3229  -23.4904 C   0  0  0  0  0  0
   33.6817  -26.6607  -23.9524 C   0  0  0  0  0  0
   33.0793  -27.8508  -23.5570 C   0  0  0  0  0  0
   33.7445  -28.7100  -22.6877 C   0  0  0  0  0  0
   37.8482  -30.3385  -19.7240 C   0  0  0  0  0  0
   38.8235  -30.9283  -18.9018 C   0  0  0  0  0  0
   40.1544  -30.5646  -18.4956 C   0  0  0  0  0  0
   39.8296  -33.4332  -17.1258 H   0  0  0  0  0  0
   41.0251  -29.7658  -20.9231 H   0  0  0  0  0  0
   42.5311  -30.1654  -20.1188 H   0  0  0  0  0  0
   42.1414  -28.4837  -20.4252 H   0  0  0  0  0  0
   40.4009  -28.4460  -18.7679 H   0  0  0  0  0  0
   42.8364  -28.5163  -17.8684 H   0  0  0  0  0  0
   41.5863  -28.8656  -16.7130 H   0  0  0  0  0  0
   43.6622  -30.5657  -17.0727 H   0  0  0  0  0  0
   37.0764  -33.7487  -17.9400 H   0  0  0  0  0  0
   35.3811  -32.6510  -19.3176 H   0  0  0  0  0  0
   36.6877  -28.7751  -21.1120 H   0  0  0  0  0  0
   36.6063  -26.9079  -22.2785 H   0  0  0  0  0  0
   35.4150  -25.3997  -23.8034 H   0  0  0  0  0  0
   33.1587  -25.9934  -24.6215 H   0  0  0  0  0  0
   32.0903  -28.1049  -23.9123 H   0  0  0  0  0  0
   33.2371  -29.6154  -22.4027 H   0  0  0  0  0  0
   38.0887  -29.4053  -20.2102 H   0  0  0  0  0  0
  1  2  1  0  0  0
  1 26  1  0  0  0
  1 27  1  0  0  0
  1 28  1  0  0  0
  2 24  1  0  0  0
  2  3  1  0  0  0
  2 29  1  0  0  0
  3  4  1  0  0  0
  3 30  1  0  0  0
  3 31  1  0  0  0
  4  5  1  0  0  0
  4 32  1  0  0  0
  5  6  2  0  0  0
  5  7  1  0  0  0
  7 24  2  0  0  0
  7  8  1  0  0  0
  8 25  1  0  0  0
  8  9  1  0  0  0
  9 23  1  0  0  0
  9 10  2  0  0  0
 10 11  1  0  0  0
 10 33  1  0  0  0
 11 12  2  0  0  0
 11 34  1  0  0  0
 12 13  1  0  0  0
 12 22  1  0  0  0
 13 14  2  0  0  0
 13 15  1  0  0  0
 15 16  1  0  0  0
 15 35  1  0  0  0
 16 21  1  0  0  0
 16 17  2  0  0  0
 17 18  1  0  0  0
 17 36  1  0  0  0
 18 19  2  0  0  0
 18 37  1  0  0  0
 19 20  1  0  0  0
 19 38  1  0  0  0
 20 21  2  0  0  0
 20 39  1  0  0  0
 21 40  1  0  0  0
 22 23  2  0  0  0
 22 41  1  0  0  0
 23 24  1  0  0  0
M  END
> <i_epik_Tot_Q>
0

> <i_epik_Tot_abs_Q>
0

> <i_i_glide_confnum>
8

> <i_i_glide_lignum>
39

> <i_i_glide_posenum>
216

> <i_i_glide_rotatable_bonds>
3

> <i_lp_mmshare_version>
51139

> <i_m_source_file_index>
37

> <i_f3d_flags>
0

> <b_lp_Chiralities_Consistent>
1

> <r_epik_Charging_Adjusted_Penalty>
0

> <r_epik_Ionization_Penalty>
0

> <r_epik_Ionization_Penalty_Charging>
0

> <r_epik_Ionization_Penalty_Neutral>
0

> <r_epik_State_Penalty>
-0

> <r_i_docking_score>
-9.43227

> <r_i_glide_ecoul>
-9.45024

> <r_i_glide_eff_state_penalty>
-0

> <r_i_glide_einternal>
0.0670604

> <r_i_glide_emodel>
-88.3969

> <r_i_glide_energy>
-57.4242

> <r_i_glide_erotb>
0.548816

> <r_i_glide_esite>
0

> <r_i_glide_evdw>
-47.974

> <r_i_glide_gscore>
-9.43227

> <r_i_glide_hbond>
-0.541448

> <r_i_glide_ligand_efficiency>
-0.393011

> <r_i_glide_ligand_efficiency_ln>
-2.25758

> <r_i_glide_ligand_efficiency_sa>
-1.13364

> <r_i_glide_lipo>
-3.51554

> <r_i_glide_metal>
-0

> <r_i_glide_rewards>
-2.10786

> <r_lp_Energy>
38.349

> <r_lp_tautomer_probability>
1

> <s_epik_cmdline>
J2VwaWtfcHl0aG9uJywgJy1waHQnLCAnMi4wJywgJy1waCcsICc3LjQnLCAnLXRuJywgJzgnLCAnLW1hJywgJzIwMCcsICctaW1hZScsICc8aW5maWxlLm1hZT4nLCAnLW9tYWUnLCAnPG91dGZpbGUubWFlPic=

> <s_epik_input>
Tz1DMVtOSF1bQ0gyXVtDQEBIXShbQ0gzXSljKGMxMiljM2MoW25IXTIpW2NIXVtjSF1jKFtjSF0zKUMoPU8pW05IXWM0W2NIXVtjSF1bY0hdW2NIXVtjSF00

> <s_i_glide_gridfile>
Sries15708-001-gridgen

> <s_lp_Force_Field>
OPLS3e

> <s_lp_Variant>
lig36-1

> <s_m_source_file>
/home/user-home/yujie/0_PBCNetv2/data/0_0_high_sim/0_noncov/Sries15708/ligprep_input.csv

$$$$
