47D
                    3D
 Schrodinger Suite 2024-1.
 32 34  0  0  1  0            999 V2000
   17.2365   -5.0534   11.8653 C   0  0  0  0  0  0
   18.2614   -5.6438   12.6117 N   0  0  0  0  0  0
   17.7494   -6.5410   13.4670 C   0  0  0  0  0  0
   18.6182   -7.4054   14.3525 C   0  0  0  0  0  0
   17.9309   -7.7652   15.5798 N   0  0  0  0  0  0
   17.8255   -6.7533   16.5488 C   0  0  0  0  0  0
   18.3933   -5.6753   16.3925 O   0  0  0  0  0  0
   17.0071   -7.0112   17.6647 N   0  0  0  0  0  0
   16.8950   -5.9751   18.6616 C   0  0  0  0  0  0
   15.5960   -5.1887   18.5191 C   0  0  0  0  0  0
   15.4004   -4.5499   17.4646 O   0  5  0  0  0  0
   14.7857   -5.2683   19.4651 O   0  0  0  0  0  0
   16.3514   -8.2246   17.7755 C   0  0  0  0  0  0
   16.4598   -9.2051   16.8529 C   0  0  0  0  0  0
   17.2802   -9.0219   15.6612 C   0  0  0  0  0  0
   17.3843   -9.8762   14.7806 O   0  0  0  0  0  0
   15.9829   -6.6289   13.5005 S   0  0  0  0  0  0
   15.9204   -5.5143   12.1573 C   0  0  0  0  0  0
   14.7924   -5.0597   11.4490 C   0  0  0  0  0  0
   14.9495   -4.0686   10.4676 C   0  0  0  0  0  0
   16.2300   -3.5549   10.2009 C   0  0  0  0  0  0
   16.3901   -2.2791    9.0599 Cl  0  0  0  0  0  0
   17.3654   -4.0538   10.8739 C   0  0  0  0  0  0
   19.5402   -6.8873   14.6252 H   0  0  0  0  0  0
   18.9298   -8.3243   13.8651 H   0  0  0  0  0  0
   17.7717   -5.3273   18.6425 H   0  0  0  0  0  0
   16.9140   -6.4932   19.6202 H   0  0  0  0  0  0
   15.7305   -8.3955   18.6430 H   0  0  0  0  0  0
   15.9258  -10.1337   16.9909 H   0  0  0  0  0  0
   13.8081   -5.4353   11.6885 H   0  0  0  0  0  0
   14.0881   -3.6871    9.9378 H   0  0  0  0  0  0
   18.3393   -3.6556   10.6405 H   0  0  0  0  0  0
  1  2  1  0  0  0
  1 18  1  0  0  0
  1 23  2  0  0  0
  2  3  2  0  0  0
  3  4  1  0  0  0
  3 17  1  0  0  0
  4  5  1  0  0  0
  4 24  1  0  0  0
  4 25  1  0  0  0
  5  6  1  0  0  0
  5 15  1  0  0  0
  6  7  2  0  0  0
  6  8  1  0  0  0
  8  9  1  0  0  0
  8 13  1  0  0  0
  9 10  1  0  0  0
  9 26  1  0  0  0
  9 27  1  0  0  0
 10 11  1  0  0  0
 10 12  2  0  0  0
 13 14  2  0  0  0
 13 28  1  0  0  0
 14 15  1  0  0  0
 14 29  1  0  0  0
 15 16  2  0  0  0
 17 18  1  0  0  0
 18 19  2  0  0  0
 19 20  1  0  0  0
 19 30  1  0  0  0
 20 21  2  0  0  0
 20 31  1  0  0  0
 21 22  1  0  0  0
 21 23  1  0  0  0
 23 32  1  0  0  0
M  CHG  1  11  -1
M  END
> <i_epik_Tot_Q>
-1

> <i_epik_Tot_abs_Q>
1

> <i_f3d_flags>
0

> <i_i_glide_confnum>
8

> <i_i_glide_lignum>
1

> <i_i_glide_posenum>
40

> <i_i_glide_rotatable_bonds>
4

> <i_lp_mmshare_version>
65135

> <i_m_Source_File_Index>
1

> <i_m_source_file_index>
1

> <i_m_stars>
0

> <i_pdb_PDB_CRYST1_z>
2

> <b_lp_Chiralities_Consistent>
1

> <b_m_subgroup_collapsed>
0

> <r_epik_Charging_Adjusted_Penalty>
0.00251622

> <r_epik_Ionization_Penalty>
0.0013

> <r_epik_Ionization_Penalty_Charging>
0.0013

> <r_epik_Ionization_Penalty_Neutral>
0

> <r_epik_State_Penalty>
0.0013

> <r_i_docking_score>
-11.1831

> <r_i_glide_ecoul>
-16.5226

> <r_i_glide_eff_state_penalty>
0.0013

> <r_i_glide_einternal>
5.07271

> <r_i_glide_emodel>
-104.166

> <r_i_glide_energy>
-59.843

> <r_i_glide_erotb>
0.464876

> <r_i_glide_esite>
-0.0231448

> <r_i_glide_evdw>
-43.3204

> <r_i_glide_gscore>
-11.1844

> <r_i_glide_hbond>
-0.603764

> <r_i_glide_ligand_efficiency>
-0.486221

> <r_i_glide_ligand_efficiency_ln>
-2.70417

> <r_i_glide_ligand_efficiency_sa>
-1.38275

> <r_i_glide_lipo>
-2.67477

> <r_i_glide_metal>
0

> <r_i_glide_rewards>
-3.70318

> <r_lp_Energy>
32.4588

> <r_lp_tautomer_probability>
1

> <r_pdb_PDB_CRYST1_a>
49.287

> <r_pdb_PDB_CRYST1_alpha>
90

> <r_pdb_PDB_CRYST1_b>
66.919

> <r_pdb_PDB_CRYST1_beta>
92.72

> <r_pdb_PDB_CRYST1_c>
47.104

> <r_pdb_PDB_CRYST1_gamma>
90

> <r_pdb_PDB_EXPDTA_PH>
5

> <r_pdb_PDB_EXPDTA_TEMPERATURE>
100

> <r_pdb_PDB_R>
0.144

> <r_pdb_PDB_RESOLUTION>
1.42

> <r_pdb_PDB_Rfree>
0.295

> <s_epik_cmdline>
J2VwaWtfcHl0aG9uJywgJy1waCcsICc3LjAnLCAnLXRuJywgJzgnLCAnLW1hJywgJzUwMCcsICctaW1hZScsICc8aW5maWxlLm1hZT4nLCAnLW9tYWUnLCAnPG91dGZpbGUubWFlPic=

> <s_epik_input>
Q2xjKFtjSF0xKVtjSF1bY0hdYyhjMTIpc2MobjIpW0NIMl1uM2MoPU8pbihbQ0gyXUMoPU8pW09IXSlbY0hdW2NIXWMzPU8=

> <s_i_glide_gridfile>
glide-grid_P15121_MT_C303D

> <s_lp_Force_Field>
S-OPLS

> <s_lp_Variant>
47D-1

> <s_m_Source_File>
glide-dock_SP_P15121_MT_C303D_pv.maegz

> <s_m_Source_Path>
C:\Users\sheng xia\Documents\Schrodinger\glide-dock_SP_P15121_MT_C303D

> <s_m_entry_id>
96

> <s_m_entry_name>
Structure93

> <s_m_job_name>
glide-dock_SP_P15121_MT_C303D

> <s_m_source_file>
ligprep_47D.maegz

> <s_m_subgroup_title>
glide-dock_SP_P15121_MT_C303D_pv

> <s_m_subgroupid>
glide-dock_SP_P15121_MT_C303D_pv

> <s_pdb_PDB_CLASSIFICATION>
OXIDOREDUCTASE

> <s_pdb_PDB_CRYST1_Space_Group>
P 1 21 1

> <s_pdb_PDB_DEPOSITION_DATE>
31-MAR-07

> <s_pdb_PDB_EXPDTA>
X-RAY DIFFRACTION

> <s_pdb_PDB_ID>
2PDG

> <s_pdb_PDB_REMARK_350_Biomolecule_1_Transform_1_Chains>
A

> <s_pdb_PDB_REMARK_350_Biomolecule_1_Transform_1_Matrix_1>
1.000000 0.000000 0.000000   0.000000;0.000000 1.000000 0.000000   0.000000;0.000000 0.000000 1.000000   0.000000

> <s_pdb_PDB_TITLE>
HUMAN ALDOSE REDUCTASE WITH URACIL-TYPE INHIBITOR AT 1.42A.

> <s_pdb_PDB_format_version>
3.30

$$$$
