47D
                    3D
 Schrodinger Suite 2024-1.
 32 34  0  0  1  0            999 V2000
   17.2903   -4.7738   11.6679 C   0  0  0  0  0  0
   18.3811   -5.1839   12.4436 N   0  0  0  0  0  0
   18.0094   -6.1699   13.2752 C   0  0  0  0  0  0
   18.9799   -6.8331   14.2186 C   0  0  0  0  0  0
   18.2926   -7.6252   15.2333 N   0  0  0  0  0  0
   18.0609   -8.9992   14.9769 C   0  0  0  0  0  0
   18.4987   -9.5446   13.9617 O   0  0  0  0  0  0
   17.3022   -9.7030   15.9429 N   0  0  0  0  0  0
   17.1210  -11.1272   15.7996 C   0  0  0  0  0  0
   17.8778  -11.9098   16.8767 C   0  0  0  0  0  0
   17.5232  -11.7504   18.0680 O   0  5  0  0  0  0
   18.8246  -12.6291   16.4924 O   0  0  0  0  0  0
   16.7648   -9.0356   17.0260 C   0  0  0  0  0  0
   16.9759   -7.7286   17.2674 C   0  0  0  0  0  0
   17.7940   -6.9371   16.3626 C   0  0  0  0  0  0
   18.0246   -5.7476   16.5530 O   0  0  0  0  0  0
   16.3024   -6.6337   13.1880 S   0  0  0  0  0  0
   16.0685   -5.4664   11.9140 C   0  0  0  0  0  0
   14.8846   -5.1762   11.2170 C   0  0  0  0  0  0
   14.8899   -4.1488   10.2637 C   0  0  0  0  0  0
   16.0703   -3.4307   10.0156 C   0  0  0  0  0  0
   16.0246   -2.1494    8.8681 Cl  0  0  0  0  0  0
   17.2649   -3.7504   10.6923 C   0  0  0  0  0  0
   19.5968   -6.0917   14.7284 H   0  0  0  0  0  0
   19.6690   -7.4794   13.6750 H   0  0  0  0  0  0
   17.3940  -11.4517   14.7951 H   0  0  0  0  0  0
   16.0477  -11.2912   15.9076 H   0  0  0  0  0  0
   16.1649   -9.5930   17.7333 H   0  0  0  0  0  0
   16.5509   -7.2691   18.1459 H   0  0  0  0  0  0
   13.9735   -5.7159   11.4326 H   0  0  0  0  0  0
   13.9911   -3.8982    9.7246 H   0  0  0  0  0  0
   18.1624   -3.1855   10.4926 H   0  0  0  0  0  0
  1  2  1  0  0  0
  1 18  1  0  0  0
  1 23  2  0  0  0
  2  3  2  0  0  0
  3  4  1  0  0  0
  3 17  1  0  0  0
  4  5  1  0  0  0
  4 24  1  0  0  0
  4 25  1  0  0  0
  5  6  1  0  0  0
  5 15  1  0  0  0
  6  7  2  0  0  0
  6  8  1  0  0  0
  8  9  1  0  0  0
  8 13  1  0  0  0
  9 10  1  0  0  0
  9 26  1  0  0  0
  9 27  1  0  0  0
 10 11  1  0  0  0
 10 12  2  0  0  0
 13 14  2  0  0  0
 13 28  1  0  0  0
 14 15  1  0  0  0
 14 29  1  0  0  0
 15 16  2  0  0  0
 17 18  1  0  0  0
 18 19  2  0  0  0
 19 20  1  0  0  0
 19 30  1  0  0  0
 20 21  2  0  0  0
 20 31  1  0  0  0
 21 22  1  0  0  0
 21 23  1  0  0  0
 23 32  1  0  0  0
M  CHG  1  11  -1
M  END
> <Tot Q>
-1

> <flags>
0

> <stars>
0

> <subgroup collapsed>
0

> <Ionization Penalty>
0.0013

> <State Penalty>
0.0013

> <docking score>
-10.7328

> <glide emodel>
-97.4103

> <glide gscore>
-10.7341

> <tautomer probability>
1

> <PDB EXPDTA PH>
5

> <PDB EXPDTA TEMPERATURE>
100

> <PDB RESOLUTION>
1.42

> <entry id>
1134

> <subgroup title>
glide-dock_SP_P15121_WT_pv

> <subgroupid>
glide-dock_SP_P15121_WT_pv

> <PDB EXPDTA>
X-RAY DIFFRACTION

> <PDB ID>
2PDG

> <PDB TITLE>
HUMAN ALDOSE REDUCTASE WITH URACIL-TYPE INHIBITOR AT 1.42A.

$$$$
