compound7
                    3D
 Schrodinger Suite 2024-1.
 63 67  0  0  1  0            999 V2000
   36.7970   -2.1762   10.5230 O   0  0  0  0  0  0
   37.1332   -2.7519    9.4744 C   0  0  0  0  0  0
   36.3308   -3.3284    8.5679 N   0  0  0  0  0  0
   35.0000   -3.7878    8.6538 C   0  0  0  0  0  0
   34.2873   -3.7748    9.8682 C   0  0  0  0  0  0
   33.0149   -4.3480    9.9427 C   0  0  0  0  0  0
   32.3919   -4.3359   11.1355 F   0  0  0  0  0  0
   32.4237   -4.9247    8.8049 C   0  0  0  0  0  0
   33.1239   -4.9225    7.5827 C   0  0  0  0  0  0
   34.4183   -4.3653    7.4930 C   0  0  0  0  0  0
   35.1312   -4.4043    6.2754 N   0  0  0  0  0  0
   35.3936   -3.1758    5.5389 C   0  0  0  0  0  0
   34.6806   -3.1523    4.1717 C   0  0  0  0  0  0
   34.9804   -4.4239    3.3461 C   0  0  0  0  0  0
   34.2959   -4.4474    2.0259 N   0  0  0  0  0  0
   34.4412   -3.1662    0.9085 S   0  0  0  0  0  0
   34.1230   -4.0777   -0.3932 N   0  5  0  0  0  0
   33.3472   -2.2226    1.1681 O   0  0  0  0  0  0
   35.8259   -2.6940    0.9631 O   0  0  0  0  0  0
   34.5672   -5.6543    4.1890 C   0  0  0  0  0  0
   35.2631   -5.6841    5.5698 C   0  0  0  0  0  0
   38.5847   -2.8872    9.1106 C   0  0  0  0  0  0
   39.5512   -2.6850   10.0605 C   0  0  0  0  0  0
   40.8265   -2.9809    9.7274 N   0  0  0  0  0  0
   41.1719   -3.4723    8.4457 C   0  0  0  0  0  0
   40.0895   -3.6290    7.5268 C   0  0  0  0  0  0
   40.2363   -4.2128    6.1838 C   0  0  0  0  0  0
   40.4051   -5.6126    6.0331 C   0  0  0  0  0  0
   40.5071   -6.3727    7.1794 O   0  0  0  0  0  0
   40.3119   -7.7817    7.0696 C   0  0  0  0  0  0
   40.4607   -6.1703    4.7318 C   0  0  0  0  0  0
   40.3498   -5.3488    3.5961 C   0  0  0  0  0  0
   40.1930   -3.9606    3.7463 C   0  0  0  0  0  0
   40.1386   -3.3957    5.0334 C   0  0  0  0  0  0
   40.0168   -2.0497    5.1552 F   0  0  0  0  0  0
   38.8716   -3.3074    7.8372 N   0  0  0  0  0  0
   42.4893   -3.6862    8.3782 N   0  0  0  0  0  0
   42.9893   -3.3908    9.6452 C   0  0  0  0  0  0
   41.9996   -2.9148   10.4538 C   0  0  0  0  0  0
   36.8175   -3.6808    7.7493 H   0  0  0  0  0  0
   34.7043   -3.3770   10.7767 H   0  0  0  0  0  0
   31.4484   -5.3890    8.8651 H   0  0  0  0  0  0
   32.6645   -5.3806    6.7206 H   0  0  0  0  0  0
   35.0628   -2.3224    6.1301 H   0  0  0  0  0  0
   36.4709   -3.0899    5.3977 H   0  0  0  0  0  0
   33.6145   -3.0679    4.3505 H   0  0  0  0  0  0
   34.9781   -2.2549    3.6287 H   0  0  0  0  0  0
   36.0540   -4.4752    3.1624 H   0  0  0  0  0  0
   34.7879   -6.5832    3.6596 H   0  0  0  0  0  0
   33.4883   -5.6573    4.3414 H   0  0  0  0  0  0
   36.3234   -5.9044    5.4435 H   0  0  0  0  0  0
   34.8648   -6.5064    6.1697 H   0  0  0  0  0  0
   39.3521   -2.3649   11.0700 H   0  0  0  0  0  0
   40.2593   -8.2203    8.0662 H   0  0  0  0  0  0
   39.3770   -8.0243    6.5608 H   0  0  0  0  0  0
   41.1408   -8.2610    6.5475 H   0  0  0  0  0  0
   40.5716   -7.2355    4.5789 H   0  0  0  0  0  0
   40.3691   -5.7953    2.6112 H   0  0  0  0  0  0
   40.0924   -3.3342    2.8719 H   0  0  0  0  0  0
   44.0390   -3.5220    9.8800 H   0  0  0  0  0  0
   42.0121   -2.5820   11.4805 H   0  0  0  0  0  0
   35.0340   -4.0277   -0.8916 H   0  0  0  0  0  0
   34.4093   -5.3593    1.5771 H   0  0  0  0  0  0
  1  2  2  0  0  0
  2  3  1  0  0  0
  2 22  1  0  0  0
  3  4  1  0  0  0
  3 40  1  0  0  0
  4 10  1  0  0  0
  4  5  2  0  0  0
  5  6  1  0  0  0
  5 41  1  0  0  0
  6  7  1  0  0  0
  6  8  2  0  0  0
  8  9  1  0  0  0
  8 42  1  0  0  0
  9 10  2  0  0  0
  9 43  1  0  0  0
 10 11  1  0  0  0
 11 21  1  0  0  0
 11 12  1  0  0  0
 12 13  1  0  0  0
 12 44  1  0  0  0
 12 45  1  0  0  0
 13 14  1  0  0  0
 13 46  1  0  0  0
 13 47  1  0  0  0
 14 15  1  0  0  0
 14 20  1  0  0  0
 14 48  1  0  0  0
 15 16  1  0  0  0
 15 63  1  0  0  0
 16 17  1  0  0  0
 16 18  2  0  0  0
 16 19  2  0  0  0
 17 62  1  0  0  0
 20 21  1  0  0  0
 20 49  1  0  0  0
 20 50  1  0  0  0
 21 51  1  0  0  0
 21 52  1  0  0  0
 22 36  1  0  0  0
 22 23  2  0  0  0
 23 24  1  0  0  0
 23 53  1  0  0  0
 24 39  1  0  0  0
 24 25  1  0  0  0
 25 26  1  0  0  0
 25 37  2  0  0  0
 26 27  1  0  0  0
 26 36  2  0  0  0
 27 34  1  0  0  0
 27 28  2  0  0  0
 28 29  1  0  0  0
 28 31  1  0  0  0
 29 30  1  0  0  0
 30 54  1  0  0  0
 30 55  1  0  0  0
 30 56  1  0  0  0
 31 32  2  0  0  0
 31 57  1  0  0  0
 32 33  1  0  0  0
 32 58  1  0  0  0
 33 34  2  0  0  0
 33 59  1  0  0  0
 34 35  1  0  0  0
 37 38  1  0  0  0
 38 39  2  0  0  0
 38 60  1  0  0  0
 39 61  1  0  0  0
M  CHG  1  17  -1
M  END
> <Source File Index>
1

> <PDB EXPDTA TEMPERATURE>
100

> <Tot Q>
-1

> <entry id>
11

> <flags>
0

> <subgroup collapsed>
0

> <Ionization Penalty>
1.3052

> <PDB RESOLUTION>
2.73

> <State Penalty>
1.5788

> <docking score>
-9.58953

> <glide emodel>
-144.828

> <glide gscore>
-10.8228

> <Source File>
compound7.sdf

> <Source Path>
C:\Users\yujie\Desktop

> <entry id>
2

> <PDB EXPDTA>
X-RAY DIFFRACTION

> <PDB ID>
6WEW

> <PDB TITLE>
Crystal structures of human E-NPP 1: bound to N-{4-[(7-methoxyquinolin-4-yl)oxy]phenyl}sulfuric diamide

> <subgroup title>
glide-dock_SP_compound7_to_6wevchainB_pv

> <subgroupid>
glide-dock_SP_compound7_to_6wevchainB_pv

$$$$
