/home/yujie/leadopt/data/result/selection/WDR5/lig_27.sdf:1
                    3D
 Schrodinger Suite 2024-1.
 62 66  0  0  1  0            999 V2000
   12.0736   20.5152   23.4262 O   0  0  0  0  0  0
   11.8160   19.3181   23.5922 C   0  0  0  0  0  0
   12.0825   18.6906   24.7829 N   0  0  0  0  0  0
   13.1100   19.2453   25.6817 C   0  0  0  0  0  0
   14.5219   18.6852   25.4723 C   0  0  0  0  0  0
   15.4228   18.6250   26.5422 C   0  0  0  0  0  0
   16.7119   18.1283   26.3101 C   0  0  0  0  0  0
   17.7418   18.0971   27.4240 C   0  0  0  0  0  0
   17.0605   17.7121   25.0218 C   0  0  0  0  0  0
   16.0901   17.7377   24.0204 C   0  0  0  0  0  0
   14.8427   18.2258   24.2291 N   0  0  0  0  0  0
   11.6826   17.2973   25.0816 C   0  0  0  0  0  0
   10.3806   16.9083   24.3727 C   0  0  0  0  0  0
   10.4729   17.2679   22.9002 C   0  0  0  0  0  0
   11.1132   18.4671   22.5531 C   0  0  0  0  0  0
   11.1076   18.9077   21.2186 C   0  0  0  0  0  0
   10.6171   18.0766   20.2035 C   0  0  0  0  0  0
   10.6597   18.4878   18.7333 C   0  0  0  0  0  0
   11.9821   18.8694   18.2344 N   0  0  0  0  0  0
   12.9885   18.0268   17.7847 C   0  0  0  0  0  0
   12.9570   16.5190   17.7318 C   0  0  0  0  0  0
   14.0648   18.8164   17.4243 N   0  3  0  0  0  0
   13.7421   20.1445   17.6286 C   0  0  0  0  0  0
   12.4477   20.1705   18.1270 C   0  0  0  0  0  0
   10.0689   16.8417   20.5461 C   0  0  0  0  0  0
    9.9732   16.4485   21.8797 C   0  0  0  0  0  0
    9.3353   15.1448   22.1792 C   0  0  0  0  0  0
    9.9532   13.9119   22.2222 C   0  0  0  0  0  0
    8.9658   13.0093   22.4984 N   0  0  0  0  0  0
    9.0851   11.5716   22.6530 C   0  0  0  0  0  0
    7.7845   13.5993   22.7050 N   0  0  0  0  0  0
    7.9957   14.8911   22.5295 C   0  0  0  0  0  0
    6.8672   15.8907   22.7254 C   0  0  0  0  0  0
    6.9292   16.4396   23.9373 F   0  0  0  0  0  0
    6.9293   16.8786   21.8340 F   0  0  0  0  0  0
    5.6734   15.3172   22.6011 F   0  0  0  0  0  0
   13.1541   20.3352   25.6277 H   0  0  0  0  0  0
   12.8097   19.0181   26.7051 H   0  0  0  0  0  0
   15.1401   18.9811   27.5230 H   0  0  0  0  0  0
   18.7293   18.3552   27.0362 H   0  0  0  0  0  0
   17.5100   18.8297   28.1987 H   0  0  0  0  0  0
   17.7971   17.1052   27.8726 H   0  0  0  0  0  0
   18.0538   17.3454   24.8048 H   0  0  0  0  0  0
   16.3112   17.3962   23.0187 H   0  0  0  0  0  0
   12.4450   16.6281   24.6768 H   0  0  0  0  0  0
   11.6778   17.0988   26.1541 H   0  0  0  0  0  0
    9.5369   17.4229   24.8345 H   0  0  0  0  0  0
   10.2003   15.8440   24.5234 H   0  0  0  0  0  0
   11.5512   19.8580   20.9556 H   0  0  0  0  0  0
   10.2936   17.6791   18.0999 H   0  0  0  0  0  0
    9.9632   19.3122   18.5663 H   0  0  0  0  0  0
   13.6781   16.1242   17.0191 H   0  0  0  0  0  0
   13.1936   16.0854   18.7027 H   0  0  0  0  0  0
   11.9857   16.1301   17.4314 H   0  0  0  0  0  0
   14.4546   20.9331   17.4265 H   0  0  0  0  0  0
   11.8110   20.9917   18.4252 H   0  0  0  0  0  0
    9.6952   16.1846   19.7745 H   0  0  0  0  0  0
   10.9774   13.6059   22.0690 H   0  0  0  0  0  0
   10.0469   11.2322   22.2665 H   0  0  0  0  0  0
    8.2843   11.0708   22.1089 H   0  0  0  0  0  0
    9.0236   11.3180   23.7128 H   0  0  0  0  0  0
   14.9628   18.4749   17.1058 H   0  0  0  0  0  0
  1  2  2  0  0  0
  2 15  1  0  0  0
  2  3  1  0  0  0
  3  4  1  0  0  0
  3 12  1  0  0  0
  4  5  1  0  0  0
  4 37  1  0  0  0
  4 38  1  0  0  0
  5 11  1  0  0  0
  5  6  2  0  0  0
  6  7  1  0  0  0
  6 39  1  0  0  0
  7  8  1  0  0  0
  7  9  2  0  0  0
  8 40  1  0  0  0
  8 41  1  0  0  0
  8 42  1  0  0  0
  9 10  1  0  0  0
  9 43  1  0  0  0
 10 11  2  0  0  0
 10 44  1  0  0  0
 12 13  1  0  0  0
 12 45  1  0  0  0
 12 46  1  0  0  0
 13 14  1  0  0  0
 13 47  1  0  0  0
 13 48  1  0  0  0
 14 26  1  0  0  0
 14 15  2  0  0  0
 15 16  1  0  0  0
 16 17  2  0  0  0
 16 49  1  0  0  0
 17 18  1  0  0  0
 17 25  1  0  0  0
 18 19  1  0  0  0
 18 50  1  0  0  0
 18 51  1  0  0  0
 19 24  1  0  0  0
 19 20  1  0  0  0
 20 21  1  0  0  0
 20 22  2  0  0  0
 21 52  1  0  0  0
 21 53  1  0  0  0
 21 54  1  0  0  0
 22 23  1  0  0  0
 22 62  1  0  0  0
 23 24  2  0  0  0
 23 55  1  0  0  0
 24 56  1  0  0  0
 25 26  2  0  0  0
 25 57  1  0  0  0
 26 27  1  0  0  0
 27 32  1  0  0  0
 27 28  2  0  0  0
 28 29  1  0  0  0
 28 58  1  0  0  0
 29 30  1  0  0  0
 29 31  1  0  0  0
 30 59  1  0  0  0
 30 60  1  0  0  0
 30 61  1  0  0  0
 31 32  2  0  0  0
 32 33  1  0  0  0
 33 34  1  0  0  0
 33 35  1  0  0  0
 33 36  1  0  0  0
M  CHG  1  22   1
M  END
> <Tot Q>
1

> <Source File Index>
2

> <i_f3d_flags>
0

> <subgroup collapsed>
0

> <Ionization Penalty>
0.1676

> <State Penalty>
0.1565

> <docking score>
-11.5011

> <glide emodel>
-117.006

> <glide gscore>
-11.6575

> <tautomer probability>
1

> <Source File>
WDR5_lig_27_ligprepout_dock_SP_confgen_pv.maegz

> <Source Path>
C:\Users\yujie\Desktop\FT_and_sele\Jupyter

> <entry id>
950

> <subgroup title>
WDR5_lig_27_ligprepout_dock_SP_confgen_pv

> <subgroupid>
WDR5_lig_27_ligprepout_dock_SP_confgen_pv

$$$$
