1OYT_1
                    3D
 Schrodinger Suite 2024-1.
 54 58  0  0  1  0            999 V2000
   16.7738  -12.7995   22.6387 O   0  0  0  0  0  0
   17.4652  -12.6621   21.6300 C   0  0  0  0  0  0
   18.4785  -13.4625   21.2223 N   0  0  0  0  0  0
   18.9217  -14.6331   21.9943 C   0  0  0  0  0  0
   19.7411  -14.2897   23.2296 C   0  0  0  0  0  0
   19.1349  -14.2923   24.4881 C   0  0  0  0  0  0
   19.8953  -14.0273   25.6231 C   0  0  0  0  0  0
   21.2591  -13.7797   25.4953 C   0  0  0  0  0  0
   21.9937  -13.5367   26.5993 F   0  0  0  0  0  0
   21.8725  -13.7905   24.2441 C   0  0  0  0  0  0
   21.1110  -14.0463   23.1072 C   0  0  0  0  0  0
   19.0471  -13.1035   20.0479 C   0  0  0  0  0  0
   20.0194  -13.6147   19.4918 O   0  0  0  0  0  0
   18.2577  -11.9254   19.4936 C   0  0  1  0  0  0
   17.2509  -12.3635   18.4005 C   0  0  1  0  0  0
   15.8955  -12.2744   18.9288 N   0  0  0  0  0  0
   14.9894  -11.9359   17.8318 C   0  0  0  0  0  0
   15.8442  -11.8270   16.5660 C   0  0  0  0  0  0
   17.2419  -11.5510   17.1016 C   0  0  0  0  0  0
   15.9919  -11.2514   19.9738 C   0  0  1  0  0  0
   14.7686  -11.2023   20.9014 C   0  0  0  0  0  0
   14.0829  -12.3511   21.3017 C   0  0  0  0  0  0
   13.0266  -12.2584   22.2036 C   0  0  0  0  0  0
   12.6006  -11.0146   22.7172 C   0  0  0  0  0  0
   13.2850   -9.8706   22.2618 C   0  0  0  0  0  0
   14.3569   -9.9619   21.3834 C   0  0  0  0  0  0
   11.4967  -10.9086   23.7062 C   0  0  0  0  0  0
   10.6433  -11.9048   23.8791 N   0  3  0  0  0  0
   11.3615   -9.8252   24.4607 N   0  0  0  0  0  0
   17.3744  -11.4946   20.6381 C   0  0  1  0  0  0
   19.5159  -15.3013   21.3677 H   0  0  0  0  0  0
   18.0487  -15.2177   22.2902 H   0  0  0  0  0  0
   18.0776  -14.4933   24.5882 H   0  0  0  0  0  0
   19.4343  -14.0220   26.5996 H   0  0  0  0  0  0
   22.9322  -13.5990   24.1595 H   0  0  0  0  0  0
   21.5810  -14.0544   22.1345 H   0  0  0  0  0  0
   18.9183  -11.1116   19.1940 H   0  0  0  0  0  0
   17.4624  -13.3721   18.0430 H   0  0  0  0  0  0
   14.4217  -11.0197   18.0010 H   0  0  0  0  0  0
   14.2895  -12.7626   17.7057 H   0  0  0  0  0  0
   15.4956  -11.0341   15.9025 H   0  0  0  0  0  0
   15.8159  -12.7634   16.0053 H   0  0  0  0  0  0
   17.9950  -11.8944   16.3925 H   0  0  0  0  0  0
   17.4012  -10.4899   17.2847 H   0  0  0  0  0  0
   16.0863  -10.2656   19.5112 H   0  0  0  0  0  0
   14.3924  -13.3229   20.9455 H   0  0  0  0  0  0
   12.5582  -13.1826   22.5092 H   0  0  0  0  0  0
   13.0154   -8.8857   22.6096 H   0  0  0  0  0  0
   14.8806   -9.0621   21.0961 H   0  0  0  0  0  0
    9.8880  -11.8066   24.5472 H   0  0  0  0  0  0
   10.7389  -12.7597   23.3484 H   0  0  0  0  0  0
   10.5661   -9.7538   25.0835 H   0  0  0  0  0  0
   12.0252   -9.0698   24.3852 H   0  0  0  0  0  0
   17.7455  -10.5900   21.1203 H   0  0  0  0  0  0
  1  2  2  0  0  0
  2  3  1  0  0  0
  2 30  1  0  0  0
  3  4  1  0  0  0
  3 12  1  0  0  0
  4  5  1  0  0  0
  4 31  1  0  0  0
  4 32  1  0  0  0
  5  6  2  0  0  0
  5 11  1  0  0  0
  6  7  1  0  0  0
  6 33  1  0  0  0
  7  8  2  0  0  0
  7 34  1  0  0  0
  8  9  1  0  0  0
  8 10  1  0  0  0
 10 11  2  0  0  0
 10 35  1  0  0  0
 11 36  1  0  0  0
 12 13  2  0  0  0
 12 14  1  0  0  0
 14 15  1  0  0  0
 14 30  1  0  0  0
 14 37  1  0  0  0
 15 16  1  0  0  0
 15 19  1  0  0  0
 15 38  1  0  0  0
 16 17  1  0  0  0
 16 20  1  0  0  0
 17 18  1  0  0  0
 17 39  1  0  0  0
 17 40  1  0  0  0
 18 19  1  0  0  0
 18 41  1  0  0  0
 18 42  1  0  0  0
 19 43  1  0  0  0
 19 44  1  0  0  0
 20 21  1  0  0  0
 20 30  1  0  0  0
 20 45  1  0  0  0
 21 22  2  0  0  0
 21 26  1  0  0  0
 22 23  1  0  0  0
 22 46  1  0  0  0
 23 24  2  0  0  0
 23 47  1  0  0  0
 24 25  1  0  0  0
 24 27  1  0  0  0
 25 26  2  0  0  0
 25 48  1  0  0  0
 26 49  1  0  0  0
 27 28  2  0  0  0
 27 29  1  0  0  0
 28 50  1  0  0  0
 28 51  1  0  0  0
 29 52  1  0  0  0
 29 53  1  0  0  0
 30 54  1  0  0  0
M  CHG  1  28   1
M  END
> <Source File Index>
1

> <stars>
0

> <prepared>
1

> <Potential Energy-S-OPLS>
-1178.05

> <PDB EXPDTA TEMPERATURE>
100

> <PDB RESOLUTION>
1.67

> <Source File>
1oyt.pdb

> <Source Path>
C:\Users\yujie\Desktop\F

> <entry id>
22

> <PDB EXPDTA>
X-RAY DIFFRACTION

> <PDB ID>
1OYT

> <PDB TITLE>
COMPLEX OF RECOMBINANT HUMAN THROMBIN WITH A DESIGNED FLUORINATED INHIBITOR

$$$$
