1OYT_ligand
                    3D
 Schrodinger Suite 2023-4.
 54 58  0  0  1  0            999 V2000
   16.4349  -13.0552   22.9335 O   0  0  0  0  0  0
   17.2056  -12.8376   22.0002 C   0  0  0  0  0  0
   18.2738  -13.5814   21.7054 N   0  0  0  0  0  0
   18.7056  -14.7478   22.4835 C   0  0  0  0  0  0
   19.4803  -14.3889   23.7422 C   0  0  0  0  0  0
   18.8877  -14.5669   25.0103 C   0  0  0  0  0  0
   19.6098  -14.2554   26.1786 C   0  0  0  0  0  0
   20.9248  -13.7624   26.0880 C   0  0  0  0  0  0
   21.5208  -13.5869   24.8246 C   0  0  0  0  0  0
   20.7984  -13.8921   23.6533 C   0  0  0  0  0  0
   18.8756  -13.1415   20.5991 C   0  0  0  0  0  0
   19.9257  -13.5784   20.1332 O   0  0  0  0  0  0
   18.0996  -11.9864   19.9637 C   0  0  1  0  0  0
   17.2323  -12.4463   18.7630 C   0  0  1  0  0  0
   15.8679  -12.6064   19.2827 N   0  0  2  0  0  0
   14.9741  -12.4687   18.1339 C   0  0  0  0  0  0
   15.7010  -11.6198   17.0846 C   0  0  0  0  0  0
   17.1176  -11.4375   17.6126 C   0  0  0  0  0  0
   15.7516  -11.5156   20.2543 C   0  0  1  0  0  0
   14.4803  -11.4502   21.1039 C   0  0  0  0  0  0
   13.7636  -12.6092   21.4677 C   0  0  0  0  0  0
   12.6615  -12.5218   22.3419 C   0  0  0  0  0  0
   12.2465  -11.2714   22.8664 C   0  0  0  0  0  0
   12.9278  -10.1055   22.4432 C   0  0  0  0  0  0
   14.0346  -10.1973   21.5765 C   0  0  0  0  0  0
   11.1519  -11.1837   23.8556 C   0  0  0  0  0  0
   10.8346  -10.0343   24.4724 N   0  3  0  0  0  0
   10.4346  -12.2528   24.2148 N   0  0  0  0  0  0
   17.0719  -11.6358   21.0439 C   0  0  1  0  0  0
   17.8337  -15.3492   22.7489 H   0  0  0  0  0  0
   19.3292  -15.4056   21.8744 H   0  0  0  0  0  0
   17.8769  -14.9408   25.0911 H   0  0  0  0  0  0
   19.1473  -14.3869   27.1452 H   0  0  0  0  0  0
   22.5329  -13.2156   24.7556 H   0  0  0  0  0  0
   21.2613  -13.7546   22.6867 H   0  0  0  0  0  0
   18.7636  -11.1551   19.7212 H   0  0  0  0  0  0
   17.5617  -13.4081   18.3631 H   0  0  0  0  0  0
   14.7972  -13.4642   17.7246 H   0  0  0  0  0  0
   14.0030  -12.0577   18.4101 H   0  0  0  0  0  0
   15.2104  -10.6563   16.9449 H   0  0  0  0  0  0
   15.7010  -12.1299   16.1210 H   0  0  0  0  0  0
   17.2354  -10.4147   17.9715 H   0  0  0  0  0  0
   17.8737  -11.6028   16.8455 H   0  0  0  0  0  0
   15.7827  -10.5690   19.7119 H   0  0  0  0  0  0
   14.0861  -13.5776   21.1137 H   0  0  0  0  0  0
   12.1682  -13.4432   22.6143 H   0  0  0  0  0  0
   12.6404   -9.1280   22.8009 H   0  0  0  0  0  0
   14.5686   -9.2987   21.3034 H   0  0  0  0  0  0
   11.4028   -9.2143   24.3390 H   0  0  0  0  0  0
    9.6795  -12.1506   24.8970 H   0  0  0  0  0  0
   10.6376  -13.1826   23.8426 H   0  0  0  0  0  0
   17.3248  -10.7109   21.5627 H   0  0  0  0  0  0
   21.4750  -13.5207   26.9858 H   0  0  0  0  0  0
    9.9775   -9.9583   25.0371 H   0  0  0  0  0  0
  1  2  2  0  0  0
  2  3  1  0  0  0
  2 29  1  0  0  0
  3  4  1  0  0  0
  3 11  1  0  0  0
  4  5  1  0  0  0
  4 30  1  0  0  0
  4 31  1  0  0  0
  5  6  2  0  0  0
  5 10  1  0  0  0
  6  7  1  0  0  0
  6 32  1  0  0  0
  7  8  2  0  0  0
  7 33  1  0  0  0
  8  9  1  0  0  0
  8 53  1  0  0  0
  9 10  2  0  0  0
  9 34  1  0  0  0
 10 35  1  0  0  0
 11 12  2  0  0  0
 11 13  1  0  0  0
 13 14  1  0  0  0
 13 29  1  0  0  0
 13 36  1  0  0  0
 14 15  1  0  0  0
 14 18  1  0  0  0
 14 37  1  0  0  0
 15 16  1  0  0  0
 15 19  1  0  0  0
 16 17  1  0  0  0
 16 38  1  0  0  0
 16 39  1  0  0  0
 17 18  1  0  0  0
 17 40  1  0  0  0
 17 41  1  0  0  0
 18 42  1  0  0  0
 18 43  1  0  0  0
 19 20  1  0  0  0
 19 29  1  0  0  0
 19 44  1  0  0  0
 20 21  2  0  0  0
 20 25  1  0  0  0
 21 22  1  0  0  0
 21 45  1  0  0  0
 22 23  2  0  0  0
 22 46  1  0  0  0
 23 24  1  0  0  0
 23 26  1  0  0  0
 24 25  2  0  0  0
 24 47  1  0  0  0
 25 48  1  0  0  0
 26 27  2  0  0  0
 26 28  1  0  0  0
 27 49  1  0  0  0
 27 54  1  0  0  0
 28 50  1  0  0  0
 28 51  1  0  0  0
 29 52  1  0  0  0
M  CHG  1  27   1
M  END
> <i_epik_Tot_Q>
1

> <i_epik_Tot_abs_Q>
1

> <i_i_glide_confnum>
16

> <i_i_glide_lignum>
2

> <i_i_glide_posenum>
329

> <i_i_glide_rotatable_bonds>
4

> <i_lp_mmshare_version>
64132

> <i_m_source_file_index>
1

> <PDB EXPDTA TEMPERATURE>
100

> <Source File Index>
1

> <entry id>
12

> <i_f3d_flags>
0

> <prepared>
1

> <stars>
0

> <b_lp_Chiralities_Consistent>
1

> <r_epik_Charging_Adjusted_Penalty>
1.25621

> <r_epik_Ionization_Penalty>
1.2493

> <r_epik_Ionization_Penalty_Charging>
0.0004

> <r_epik_Ionization_Penalty_Neutral>
1.2489

> <r_epik_State_Penalty>
1.2558

> <r_i_docking_score>
-9.78652

> <r_i_glide_ecoul>
-13.8986

> <r_i_glide_eff_state_penalty>
1.2558

> <r_i_glide_einternal>
2.43101

> <r_i_glide_emodel>
-95.7467

> <r_i_glide_energy>
-55.9574

> <r_i_glide_erotb>
0.385555

> <r_i_glide_esite>
-0.117386

> <r_i_glide_evdw>
-42.0588

> <r_i_glide_gscore>
-11.0423

> <r_i_glide_hbond>
-0.72

> <r_i_glide_ligand_efficiency>
-0.337466

> <r_i_glide_ligand_efficiency_ln>
-2.24086

> <r_i_glide_ligand_efficiency_sa>
-1.0368

> <r_i_glide_lipo>
-4.11382

> <r_i_glide_metal>
-0

> <r_i_glide_rewards>
-2.28894

> <r_lp_Energy>
49.2363

> <r_lp_tautomer_probability>
1

> <PDB RESOLUTION>
1.67

> <Potential Energy-S-OPLS>
-1178.05

> <s_epik_Chemistry_Notes>
This compound has an imine and may undergo hydrolysis.

> <s_epik_cmdline>
J2VwaWtfcHl0aG9uJywgJy1waHQnLCAnMi4wJywgJy1waCcsICc3LjQnLCAnLXRuJywgJzgnLCAnLW1hJywgJzIwMCcsICctaW1hZScsICc8aW5maWxlLm1hZT4nLCAnLW9tYWUnLCAnPG91dGZpbGUubWFlPic=

> <s_epik_input>
W2NIXTFbY0hdW2NIXVtjSF1bY0hdYzFbQ0gyXU4oQzI9TylDKD1PKVtDQEBIXTNbQ0BASF0oTihbQ0BASF00W0NASF0yMylbQ0gyXVtDSDJdW0NIMl00KWM1W2NIXVtjSF1jKFtjSF1bY0hdNSkvQyg9TlxbSF0pW05IMl0=

> <s_i_glide_gridfile>
glide-grid_1oyt

> <s_lp_Force_Field>
OPLS_2005

> <s_lp_Variant>
1OYT_ligand-2

> <s_m_source_file>
/home/user-home/yujie/0_PBCNetv2/data_BindingDB/F/docking/1OYT_ligand.sdf

> <PDB EXPDTA>
X-RAY DIFFRACTION

> <PDB ID>
1OYT

> <PDB TITLE>
COMPLEX OF RECOMBINANT HUMAN THROMBIN WITH A DESIGNED FLUORINATED INHIBITOR

> <Source File>
1oyt.pdb

> <Source Path>
C:\Users\yujie\Desktop\F

$$$$
