3OQK_1
                    3D
 Schrodinger Suite 2024-1.
 54 58  0  0  1  0            999 V2000
  -13.1675  -21.8405   -3.3826 C   0  0  0  0  0  0
   -9.2594  -22.2444   -0.3019 O   0  0  0  0  0  0
  -13.2787  -23.0609   -2.6879 C   0  0  0  0  0  0
  -12.1264  -23.7105   -2.2069 C   0  0  0  0  0  0
  -10.8544  -23.1542   -2.4422 C   0  0  0  0  0  0
  -10.7401  -21.9359   -3.1458 C   0  0  0  0  0  0
  -11.8964  -21.2775   -3.6106 C   0  0  0  0  0  0
   -9.7059  -23.8214   -1.9718 N   0  0  0  0  0  0
   -9.2242  -25.0272   -2.4649 C   0  0  0  0  0  0
   -8.0661  -25.3552   -1.6988 C   0  0  0  0  0  0
   -7.8901  -24.3073   -0.7321 C   0  0  0  0  0  0
   -8.9065  -23.3988   -0.9152 C   0  0  0  0  0  0
   -9.6786  -25.8563   -3.5077 C   0  0  0  0  0  0
   -8.9920  -27.0463   -3.8029 C   0  0  0  0  0  0
   -7.8498  -27.3945   -3.0614 C   0  0  0  0  0  0
   -7.3919  -26.5580   -2.0260 C   0  0  0  0  0  0
   -9.1637  -22.2202    1.0636 C   0  0  0  0  0  0
   -8.3263  -21.2735    1.6841 C   0  0  0  0  0  0
   -8.1629  -21.2914    3.0829 C   0  0  0  0  0  0
   -8.8213  -22.2629    3.8594 C   0  0  0  0  0  0
   -9.6843  -23.1842    3.2435 C   0  0  0  0  0  0
   -9.8687  -23.1567    1.8500 C   0  0  0  0  0  0
   -6.7393  -24.2420    0.2203 C   0  0  0  0  0  0
   -6.5394  -25.2740    1.0789 N   0  0  0  0  0  0
   -5.9889  -23.2748    0.1784 O   0  0  0  0  0  0
   -7.4728  -26.3825    1.2709 C   0  0  0  0  0  0
   -7.8671  -26.4762    2.7374 C   0  0  0  0  0  0
   -6.7087  -26.6859    3.5916 N   0  3  0  0  0  0
   -5.6878  -25.6364    3.4258 C   0  0  0  0  0  0
   -5.3369  -25.4006    1.9299 C   0  0  0  0  0  0
  -14.0557  -21.3340   -3.7339 H   0  0  0  0  0  0
  -14.2438  -23.5076   -2.5136 H   0  0  0  0  0  0
  -12.2199  -24.6389   -1.6576 H   0  0  0  0  0  0
   -9.7701  -21.5031   -3.3279 H   0  0  0  0  0  0
  -11.8104  -20.3403   -4.1407 H   0  0  0  0  0  0
  -10.5694  -25.5897   -4.0535 H   0  0  0  0  0  0
   -9.3503  -27.7014   -4.5810 H   0  0  0  0  0  0
   -7.3367  -28.3243   -3.2611 H   0  0  0  0  0  0
   -6.5269  -26.8635   -1.4555 H   0  0  0  0  0  0
   -7.7820  -20.5620    1.0801 H   0  0  0  0  0  0
   -7.5104  -20.5819    3.5625 H   0  0  0  0  0  0
   -8.6640  -22.3218    4.9275 H   0  0  0  0  0  0
  -10.3173  -24.1152    3.9861 F   0  0  0  0  0  0
  -10.5231  -23.8822    1.3875 H   0  0  0  0  0  0
   -6.9937  -27.3047    0.9485 H   0  0  0  0  0  0
   -8.3958  -26.2901    0.7071 H   0  0  0  0  0  0
   -8.4975  -27.3327    2.9115 H   0  0  0  0  0  0
   -8.4108  -25.5929    3.0663 H   0  0  0  0  0  0
   -6.4135  -27.6481    3.4234 H   0  0  0  0  0  0
   -7.1370  -26.7021    4.5366 H   0  0  0  0  0  0
   -4.8032  -25.9028    4.0051 H   0  0  0  0  0  0
   -6.0839  -24.7174    3.8622 H   0  0  0  0  0  0
   -4.6829  -24.5301    1.8488 H   0  0  0  0  0  0
   -4.7552  -26.2461    1.5589 H   0  0  0  0  0  0
  1  3  2  0  0  0
  1  7  1  0  0  0
  1 31  1  0  0  0
  2 12  1  0  0  0
  2 17  1  0  0  0
  3  4  1  0  0  0
  3 32  1  0  0  0
  4  5  2  0  0  0
  4 33  1  0  0  0
  5  6  1  0  0  0
  5  8  1  0  0  0
  6  7  2  0  0  0
  6 34  1  0  0  0
  7 35  1  0  0  0
  8  9  1  0  0  0
  8 12  1  0  0  0
  9 10  1  0  0  0
  9 13  2  0  0  0
 10 11  1  0  0  0
 10 16  2  0  0  0
 11 12  2  0  0  0
 11 23  1  0  0  0
 13 14  1  0  0  0
 13 36  1  0  0  0
 14 15  2  0  0  0
 14 37  1  0  0  0
 15 16  1  0  0  0
 15 38  1  0  0  0
 16 39  1  0  0  0
 17 18  2  0  0  0
 17 22  1  0  0  0
 18 19  1  0  0  0
 18 40  1  0  0  0
 19 20  2  0  0  0
 19 41  1  0  0  0
 20 21  1  0  0  0
 20 42  1  0  0  0
 21 22  2  0  0  0
 21 43  1  0  0  0
 22 44  1  0  0  0
 23 24  1  0  0  0
 23 25  2  0  0  0
 24 26  1  0  0  0
 24 30  1  0  0  0
 26 27  1  0  0  0
 26 45  1  0  0  0
 26 46  1  0  0  0
 27 28  1  0  0  0
 27 47  1  0  0  0
 27 48  1  0  0  0
 28 29  1  0  0  0
 28 49  1  0  0  0
 28 50  1  0  0  0
 29 30  1  0  0  0
 29 51  1  0  0  0
 29 52  1  0  0  0
 30 53  1  0  0  0
 30 54  1  0  0  0
M  CHG  1  28   1
M  END
> <Source File Index>
1

> <stars>
0

> <prepared>
1

> <Potential Energy-S-OPLS>
-1121.13

> <PDB EXPDTA PH>
4.5

> <PDB EXPDTA TEMPERATURE>
100

> <PDB RESOLUTION>
2.9

> <Source File>
3oqk.pdb

> <Source Path>
C:\Users\yujie\Desktop\F

> <entry id>
25

> <PDB EXPDTA>
X-RAY DIFFRACTION

> <PDB ID>
3OQK

> <PDB TITLE>
CRYSTAL STRUCTURE ANALYSIS OF RENIN-INDOLE-PIPERAZIN INHIBITOR COMPLEXES

$$$$
