4E3N_1
                    3D
 Schrodinger Suite 2024-1.
 31 32  0  0  1  0            999 V2000
   25.9846    4.9858   15.8813 B   0  5  0  0  0  0
   24.9268    4.0590   16.2936 O   0  0  0  0  0  0
   26.0450    5.9928   16.9343 O   0  0  0  0  0  0
   25.5126    5.7374   14.5443 C   0  0  0  0  0  0
   24.4645    6.6647   14.9416 N   0  0  0  0  0  0
   23.6759    7.6824   13.8241 S   0  0  0  0  0  0
   22.8858    8.6563   14.5859 O   0  0  0  0  0  0
   24.7063    8.1625   12.8905 O   0  0  0  0  0  0
   22.5927    6.5837   12.9054 C   0  0  0  0  0  0
   23.0700    6.1554   11.6484 C   0  0  0  0  0  0
   22.2373    5.4289   10.7838 C   0  0  0  0  0  0
   20.9184    5.1177   11.1606 C   0  0  0  0  0  0
   20.0262    4.4133   10.2272 C   0  0  0  0  0  0
   19.1094    3.5369   10.6453 N   0  5  0  0  0  0
   18.4900    3.2012    9.5107 N   0  0  0  0  0  0
   19.0514    3.8473    8.4773 N   0  0  0  0  0  0
   20.0529    4.6256    8.9080 N   0  0  0  0  0  0
   20.4668    5.5118   12.4387 C   0  0  0  0  0  0
   21.2915    6.2260   13.3368 C   0  0  0  0  0  0
   20.7359    6.6023   14.7076 C   0  0  0  0  0  0
   19.9784    5.6174   15.1923 F   0  0  0  0  0  0
   19.9551    7.6765   14.6071 F   0  0  0  0  0  0
   21.7006    6.8192   15.5996 F   0  0  0  0  0  0
   24.1545    3.9543   15.7384 H   0  0  0  0  0  0
   25.6441    6.8202   16.7048 H   0  0  0  0  0  0
   25.1356    5.0212   13.8129 H   0  0  0  0  0  0
   26.3411    6.2840   14.1040 H   0  0  0  0  0  0
   23.8615    6.2635   15.6646 H   0  0  0  0  0  0
   24.0677    6.4065   11.3293 H   0  0  0  0  0  0
   22.5898    5.1201    9.8101 H   0  0  0  0  0  0
   19.4520    5.2739   12.7171 H   0  0  0  0  0  0
  1  2  1  0  0  0
  1  3  1  0  0  0
  1  4  1  0  0  0
  2 24  1  0  0  0
  3 25  1  0  0  0
  4  5  1  0  0  0
  4 26  1  0  0  0
  4 27  1  0  0  0
  5  6  1  0  0  0
  5 28  1  0  0  0
  6  7  2  0  0  0
  6  8  2  0  0  0
  6  9  1  0  0  0
  9 10  2  0  0  0
  9 19  1  0  0  0
 10 11  1  0  0  0
 10 29  1  0  0  0
 11 12  2  0  0  0
 11 30  1  0  0  0
 12 13  1  0  0  0
 12 18  1  0  0  0
 13 14  1  0  0  0
 13 17  2  0  0  0
 14 15  1  0  0  0
 15 16  2  0  0  0
 16 17  1  0  0  0
 18 19  2  0  0  0
 18 31  1  0  0  0
 19 20  1  0  0  0
 20 21  1  0  0  0
 20 22  1  0  0  0
 20 23  1  0  0  0
M  CHG  2   1  -1  14  -1
M  END
> <Source File Index>
1

> <PDB EXPDTA TEMPERATURE>
80

> <Source File Index>
1

> <entry id>
99

> <prepared>
1

> <stars>
0

> <PDB EXPDTA PH>
8.8

> <PDB RESOLUTION>
1.49

> <Potential Energy-S-OPLS>
-1491.88

> <Source File>
4E3N_1.sdf

> <Source Path>
C:\Users\yujie\Desktop

> <entry id>
107

> <PDB EXPDTA>
X-RAY DIFFRACTION

> <PDB ID>
4E3N

> <PDB TITLE>
CRYSTAL STRUCTURE OF AMPC BETA-LACTAMASE IN COMPLEX WITH A 2- TRIFLUOROMETHYL-4-TETRAZOLYL BENZENE SULFONAMIDE BORONIC ACID INHIBITOR

> <Source File>
4e3n.pdb

> <Source Path>
C:\Users\yujie\Documents\Schrodinger

$$$$
