4NBL_1
                    3D
 Schrodinger Suite 2024-1.
 35 37  0  0  1  0            999 V2000
   30.7836   21.4414   -5.9139 C   0  0  0  0  0  0
   28.8983   26.8126   -6.7845 C   0  0  0  0  0  0
   31.1633   20.8363   -4.7100 C   0  0  0  0  0  0
   29.1834   24.4567   -6.4126 C   0  0  0  0  0  0
   29.4650   24.2718   -7.7338 N   0  0  0  0  0  0
   29.4693   25.3344   -8.5671 C   0  0  0  0  0  0
   29.1940   26.6222   -8.1325 C   0  0  0  0  0  0
   28.8755   25.7369   -5.8730 C   0  0  0  0  0  0
   29.2114   23.3142   -5.5906 N   0  0  0  0  0  0
   29.3561   21.9438   -6.0692 C   0  0  0  0  0  0
   32.4483   20.3168   -4.5568 C   0  0  0  0  0  0
   33.3531   20.3861   -5.6134 C   0  0  0  0  0  0
   32.9843   20.9775   -6.8160 C   0  0  0  0  0  0
   31.7101   21.5158   -6.9649 C   0  0  0  0  0  0
   31.4030   22.1261   -8.1476 O   0  0  0  0  0  0
   34.5922   19.8788   -5.4781 F   0  0  0  0  0  0
   28.5421   26.0100   -4.4201 C   0  0  0  0  0  0
   28.1032   24.9847   -3.6332 N   0  0  0  0  0  0
   27.8377   25.2611   -2.3308 C   0  0  0  0  0  0
   27.9819   26.5414   -1.7964 C   0  0  0  0  0  0
   28.4129   27.5395   -2.6702 C   0  0  0  0  0  0
   28.6942   27.2928   -3.9762 N   0  0  0  0  0  0
   28.6739   27.8182   -6.4593 H   0  0  0  0  0  0
   30.4590   20.7606   -3.8937 H   0  0  0  0  0  0
   29.7034   25.1372   -9.6026 H   0  0  0  0  0  0
   29.2065   27.4537   -8.8219 H   0  0  0  0  0  0
   28.9338   23.4395   -4.6269 H   0  0  0  0  0  0
   28.6887   21.3205   -5.4744 H   0  0  0  0  0  0
   29.0333   21.8291   -7.1032 H   0  0  0  0  0  0
   32.7397   19.8530   -3.6264 H   0  0  0  0  0  0
   33.6956   21.0293   -7.6273 H   0  0  0  0  0  0
   30.5560   22.5807   -8.1145 H   0  0  0  0  0  0
   27.5015   24.4382   -1.7177 H   0  0  0  0  0  0
   27.7626   26.7514   -0.7602 H   0  0  0  0  0  0
   28.5389   28.5573   -2.3324 H   0  0  0  0  0  0
  1  3  2  0  0  0
  1 10  1  0  0  0
  1 14  1  0  0  0
  2  7  2  0  0  0
  2  8  1  0  0  0
  2 23  1  0  0  0
  3 11  1  0  0  0
  3 24  1  0  0  0
  4  5  1  0  0  0
  4  8  2  0  0  0
  4  9  1  0  0  0
  5  6  2  0  0  0
  6  7  1  0  0  0
  6 25  1  0  0  0
  7 26  1  0  0  0
  8 17  1  0  0  0
  9 10  1  0  0  0
  9 27  1  0  0  0
 10 28  1  0  0  0
 10 29  1  0  0  0
 11 12  2  0  0  0
 11 30  1  0  0  0
 12 13  1  0  0  0
 12 16  1  0  0  0
 13 14  2  0  0  0
 13 31  1  0  0  0
 14 15  1  0  0  0
 15 32  1  0  0  0
 17 18  2  0  0  0
 17 22  1  0  0  0
 18 19  1  0  0  0
 19 20  2  0  0  0
 19 33  1  0  0  0
 20 21  1  0  0  0
 20 34  1  0  0  0
 21 22  2  0  0  0
 21 35  1  0  0  0
M  END
> <Source File Index>
1

> <stars>
0

> <prepared>
1

> <Potential Energy-S-OPLS>
-2308.61

> <PDB EXPDTA PH>
8.5

> <PDB EXPDTA TEMPERATURE>
100

> <PDB RESOLUTION>
1.76

> <Source File>
4nbl.pdb

> <Source Path>
C:\Users\yujie\Desktop\F

> <entry id>
26

> <PDB EXPDTA>
X-RAY DIFFRACTION

> <PDB ID>
4NBL

> <PDB TITLE>
TAILORING SMALL MOLECULES FOR AN ALLOSTERIC SITE ON PROCASPASE-6

$$$$
