4OG6_ligand
                    3D
 Schrodinger Suite 2023-4.
 66 69  0  0  1  0            999 V2000
  -15.4391    8.3506  -12.4950 C   0  0  0  0  0  0
  -16.2637    7.6186  -13.3706 C   0  0  0  0  0  0
  -17.6421    7.5288  -13.1286 C   0  0  0  0  0  0
  -18.2022    8.1776  -12.0150 C   0  0  0  0  0  0
  -17.3773    8.8981  -11.1325 C   0  0  0  0  0  0
  -15.9795    8.9905  -11.3532 C   0  0  0  0  0  0
  -15.0662    9.7217  -10.3502 C   0  0  2  0  0  0
  -14.3983    8.7040   -9.3611 C   0  0  0  0  0  0
  -15.3345    7.6744   -8.7083 C   0  0  0  0  0  0
  -14.3800    6.6722   -8.0511 C   0  0  0  0  0  0
  -13.1242    6.6503   -8.9324 C   0  0  0  0  0  0
  -13.2701    7.8160   -9.9199 C   0  0  0  0  0  0
  -15.8191   10.5819   -9.5116 O   0  0  0  0  0  0
  -14.0321   10.6630  -11.0567 C   0  0  1  0  0  0
  -14.6617   11.7327  -11.9867 C   0  0  0  0  0  0
  -13.5927   12.5748  -12.7159 C   0  0  0  0  0  0
  -13.0558   11.3821  -10.1061 C   0  0  0  0  0  0
  -12.0011   12.1771  -10.8837 C   0  0  0  0  0  0
  -12.6258   13.1984  -11.7725 N   0  3  1  0  0  0
  -11.6335   14.0637  -12.4755 C   0  0  0  0  0  0
  -10.7411   14.8707  -11.5077 C   0  0  0  0  0  0
   -9.8219   15.8867  -12.1908 C   0  0  0  0  0  0
  -10.5999   16.9784  -12.6659 O   0  0  0  0  0  0
   -9.9438   18.1339  -13.0324 C   0  0  0  0  0  0
  -10.7456   19.2460  -13.3611 C   0  0  0  0  0  0
  -10.1694   20.4627  -13.7772 C   0  0  0  0  0  0
   -8.7683   20.5880  -13.8439 C   0  0  0  0  0  0
   -8.1638   21.8154  -14.3259 C   0  0  0  0  0  0
   -7.6806   22.7935  -14.7152 N   0  0  0  0  0  0
   -7.9563   19.4964  -13.4805 C   0  0  0  0  0  0
   -8.5343   18.2715  -13.0932 C   0  0  0  0  0  0
  -14.3829    8.3908  -12.7138 H   0  0  0  0  0  0
  -18.2665    6.9690  -13.8058 H   0  0  0  0  0  0
  -19.2646    8.1202  -11.8356 H   0  0  0  0  0  0
  -17.8338    9.3597  -10.2701 H   0  0  0  0  0  0
  -13.9643    9.2706   -8.5350 H   0  0  0  0  0  0
  -16.0218    8.1253   -7.9916 H   0  0  0  0  0  0
  -15.9338    7.1500   -9.4535 H   0  0  0  0  0  0
  -14.1181    7.0443   -7.0615 H   0  0  0  0  0  0
  -14.8291    5.6860   -7.9299 H   0  0  0  0  0  0
  -12.2303    6.7670   -8.3217 H   0  0  0  0  0  0
  -13.0299    5.6999   -9.4606 H   0  0  0  0  0  0
  -13.5414    7.4019  -10.8883 H   0  0  0  0  0  0
  -12.3346    8.3575  -10.0531 H   0  0  0  0  0  0
  -16.3000   11.1818  -10.0624 H   0  0  0  0  0  0
  -13.4108   10.0334  -11.6809 H   0  0  0  0  0  0
  -15.3067   12.4006  -11.4126 H   0  0  0  0  0  0
  -15.3076   11.2605  -12.7267 H   0  0  0  0  0  0
  -14.0891   13.3502  -13.3032 H   0  0  0  0  0  0
  -13.0499   11.9514  -13.4285 H   0  0  0  0  0  0
  -12.5241   10.6718   -9.4763 H   0  0  0  0  0  0
  -13.5980   12.0459   -9.4326 H   0  0  0  0  0  0
  -11.3782   11.5082  -11.4826 H   0  0  0  0  0  0
  -11.3498   12.6444  -10.1475 H   0  0  0  0  0  0
  -12.1746   14.7622  -13.1170 H   0  0  0  0  0  0
  -11.0152   13.4538  -13.1347 H   0  0  0  0  0  0
  -10.0875   14.1963  -10.9530 H   0  0  0  0  0  0
  -11.3556   15.3864  -10.7677 H   0  0  0  0  0  0
   -9.2617   15.4231  -13.0077 H   0  0  0  0  0  0
   -9.1013   16.2341  -11.4456 H   0  0  0  0  0  0
  -11.8211   19.1627  -13.3004 H   0  0  0  0  0  0
  -10.8181   21.2852  -14.0453 H   0  0  0  0  0  0
   -6.8801   19.5803  -13.5237 H   0  0  0  0  0  0
   -7.8730   17.4492  -12.8585 H   0  0  0  0  0  0
  -15.8300    7.1251  -14.2311 H   0  0  0  0  0  0
  -13.1689   13.8101  -11.1773 H   0  0  0  0  0  0
  1  2  2  0  0  0
  1  6  1  0  0  0
  1 32  1  0  0  0
  2  3  1  0  0  0
  2 65  1  0  0  0
  3  4  2  0  0  0
  3 33  1  0  0  0
  4  5  1  0  0  0
  4 34  1  0  0  0
  5  6  2  0  0  0
  5 35  1  0  0  0
  6  7  1  0  0  0
  7  8  1  0  0  0
  7 13  1  0  0  0
  7 14  1  0  0  0
  8  9  1  0  0  0
  8 12  1  0  0  0
  8 36  1  0  0  0
  9 10  1  0  0  0
  9 37  1  0  0  0
  9 38  1  0  0  0
 10 11  1  0  0  0
 10 39  1  0  0  0
 10 40  1  0  0  0
 11 12  1  0  0  0
 11 41  1  0  0  0
 11 42  1  0  0  0
 12 43  1  0  0  0
 12 44  1  0  0  0
 13 45  1  0  0  0
 14 15  1  0  0  0
 14 17  1  0  0  0
 14 46  1  0  0  0
 15 16  1  0  0  0
 15 47  1  0  0  0
 15 48  1  0  0  0
 16 19  1  0  0  0
 16 49  1  0  0  0
 16 50  1  0  0  0
 17 18  1  0  0  0
 17 51  1  0  0  0
 17 52  1  0  0  0
 18 19  1  0  0  0
 18 53  1  0  0  0
 18 54  1  0  0  0
 19 20  1  0  0  0
 19 66  1  0  0  0
 20 21  1  0  0  0
 20 55  1  0  0  0
 20 56  1  0  0  0
 21 22  1  0  0  0
 21 57  1  0  0  0
 21 58  1  0  0  0
 22 23  1  0  0  0
 22 59  1  0  0  0
 22 60  1  0  0  0
 23 24  1  0  0  0
 24 25  2  0  0  0
 24 31  1  0  0  0
 25 26  1  0  0  0
 25 61  1  0  0  0
 26 27  2  0  0  0
 26 62  1  0  0  0
 27 28  1  0  0  0
 27 30  1  0  0  0
 28 29  3  0  0  0
 30 31  2  0  0  0
 30 63  1  0  0  0
 31 64  1  0  0  0
M  CHG  1  19   1
M  END
> <i_epik_Tot_Q>
1

> <i_epik_Tot_abs_Q>
1

> <i_i_glide_confnum>
425

> <i_i_glide_lignum>
1

> <i_i_glide_posenum>
228

> <i_i_glide_rotatable_bonds>
9

> <i_lp_mmshare_version>
64132

> <i_m_source_file_index>
1

> <PDB EXPDTA PH>
8

> <Source File Index>
1

> <entry id>
19

> <i_f3d_flags>
0

> <prepared>
1

> <stars>
0

> <b_lp_Chiralities_Consistent>
1

> <r_epik_Charging_Adjusted_Penalty>
0.0305324

> <r_epik_Ionization_Penalty>
0.0153

> <r_epik_Ionization_Penalty_Charging>
0.0153

> <r_epik_Ionization_Penalty_Neutral>
0

> <r_epik_State_Penalty>
0.0153

> <r_i_docking_score>
-7.46463

> <r_i_glide_ecoul>
-9.11388

> <r_i_glide_eff_state_penalty>
0.0152662

> <r_i_glide_einternal>
3.82779

> <r_i_glide_emodel>
-79.2609

> <r_i_glide_energy>
-51.4443

> <r_i_glide_erotb>
0.899064

> <r_i_glide_esite>
0

> <r_i_glide_evdw>
-42.3304

> <r_i_glide_gscore>
-7.47989

> <r_i_glide_hbond>
-0.197424

> <r_i_glide_ligand_efficiency>
-0.240794

> <r_i_glide_ligand_efficiency_ln>
-1.6835

> <r_i_glide_ligand_efficiency_sa>
-0.756427

> <r_i_glide_lipo>
-3.58988

> <r_i_glide_metal>
-0

> <r_i_glide_rewards>
-1.10805

> <r_lp_Energy>
56.886

> <PDB RESOLUTION>
1.49

> <Potential Energy-S-OPLS>
-2212.74

> <s_epik_cmdline>
J2VwaWtfcHl0aG9uJywgJy1waHQnLCAnMi4wJywgJy1waCcsICc3LjQnLCAnLXRuJywgJzgnLCAnLW1hJywgJzIwMCcsICctaW1hZScsICc8aW5maWxlLm1hZT4nLCAnLW9tYWUnLCAnPG91dGZpbGUubWFlPic=

> <s_epik_input>
W2NIXTFbY0hdW2NIXVtjSF1bY0hdYzFbQ0BAXShbT0hdKShbQ0hdMltDSDJdW0NIMl1bQ0gyXVtDSDJdMilbQ0hdM1tDSDJdW0NIMl1OKFtDSDJdW0NIMl0zKVtDSDJdW0NIMl1bQ0gyXU9jNFtjSF1bY0hdYyhDI04pW2NIXVtjSF00

> <s_i_glide_gridfile>
glide-grid_4og6

> <s_lp_Force_Field>
OPLS_2005

> <s_lp_Variant>
4OG6_ligand-1

> <s_m_source_file>
/home/user-home/yujie/0_PBCNetv2/data_BindingDB/F/docking/4OG6_ligand.sdf

> <PDB EXPDTA>
X-RAY DIFFRACTION

> <PDB ID>
4OG6

> <PDB TITLE>
HUMAN MENIN WITH BOUND INHIBITOR MIV-4

> <Source File>
4og6.pdb

> <Source Path>
C:\Users\yujie\Desktop\F

$$$$
