5G40_1
                    3D
 Schrodinger Suite 2024-1.
 40 42  0  0  1  0            999 V2000
   91.6795   93.4152  -44.2849 C   0  0  0  0  0  0
   94.3383   93.7340  -41.1314 F   0  0  0  0  0  0
   91.9849   93.5990  -42.9342 N   0  0  0  0  0  0
   91.2570   94.6520  -44.8519 C   0  0  0  0  0  0
   94.4333   91.5796  -41.1810 F   0  0  0  0  0  0
   92.2729   99.9734  -42.7119 N   0  3  0  0  0  0
   91.3348   95.6312  -43.8032 C   0  0  0  0  0  0
   94.6357   92.7010  -43.0170 F   0  0  0  0  0  0
   91.7285   94.9350  -42.6251 C   0  0  0  0  0  0
   91.7273   92.2468  -45.0725 C   0  0  0  0  0  0
   91.3099   92.2744  -46.4123 C   0  0  0  0  0  0
   90.8639   93.4797  -46.9763 C   0  0  0  0  0  0
   90.8657   94.6635  -46.2114 C   0  0  0  0  0  0
   91.8342   95.6103  -41.3941 C   0  0  0  0  0  0
   91.6161   96.9953  -41.3267 C   0  0  0  0  0  0
   91.2608   97.7105  -42.4879 C   0  0  0  0  0  0
   91.0948   97.0212  -43.7099 C   0  0  0  0  0  0
   92.4817   92.5835  -42.0180 C   0  0  0  0  0  0
   94.0088   92.6548  -41.8400 C   0  0  0  0  0  0
   91.0385   99.2074  -42.4041 C   0  0  0  0  0  0
   92.5990  100.0130  -44.1577 C   0  0  0  0  0  0
   92.2680  101.3231  -42.1018 C   0  0  0  0  0  0
   93.0574   99.4917  -42.2733 H   0  0  0  0  0  0
   92.0399   91.3064  -44.6488 H   0  0  0  0  0  0
   91.3198   91.3632  -46.9952 H   0  0  0  0  0  0
   90.5171   93.4844  -47.9983 H   0  0  0  0  0  0
   90.5352   95.5873  -46.6615 H   0  0  0  0  0  0
   92.1119   95.0698  -40.5016 H   0  0  0  0  0  0
   91.7173   97.4895  -40.3705 H   0  0  0  0  0  0
   90.7872   97.5430  -44.6043 H   0  0  0  0  0  0
   92.1860   91.6032  -42.3876 H   0  0  0  0  0  0
   91.9894   92.7056  -41.0544 H   0  0  0  0  0  0
   90.2237   99.5045  -43.0663 H   0  0  0  0  0  0
   90.7006   99.4363  -41.3931 H   0  0  0  0  0  0
   93.5018  100.5973  -44.3324 H   0  0  0  0  0  0
   92.7910   99.0139  -44.5498 H   0  0  0  0  0  0
   91.7921  100.4610  -44.7386 H   0  0  0  0  0  0
   93.2183  101.8303  -42.2782 H   0  0  0  0  0  0
   91.4685  101.9420  -42.5115 H   0  0  0  0  0  0
   92.1334  101.2600  -41.0203 H   0  0  0  0  0  0
  1  3  1  0  0  0
  1  4  2  0  0  0
  1 10  1  0  0  0
  2 19  1  0  0  0
  3  9  1  0  0  0
  3 18  1  0  0  0
  4  7  1  0  0  0
  4 13  1  0  0  0
  5 19  1  0  0  0
  6 20  1  0  0  0
  6 21  1  0  0  0
  6 22  1  0  0  0
  6 23  1  0  0  0
  7  9  2  0  0  0
  7 17  1  0  0  0
  8 19  1  0  0  0
  9 14  1  0  0  0
 10 11  2  0  0  0
 10 24  1  0  0  0
 11 12  1  0  0  0
 11 25  1  0  0  0
 12 13  2  0  0  0
 12 26  1  0  0  0
 13 27  1  0  0  0
 14 15  2  0  0  0
 14 28  1  0  0  0
 15 16  1  0  0  0
 15 29  1  0  0  0
 16 17  2  0  0  0
 16 20  1  0  0  0
 17 30  1  0  0  0
 18 19  1  0  0  0
 18 31  1  0  0  0
 18 32  1  0  0  0
 20 33  1  0  0  0
 20 34  1  0  0  0
 21 35  1  0  0  0
 21 36  1  0  0  0
 21 37  1  0  0  0
 22 38  1  0  0  0
 22 39  1  0  0  0
 22 40  1  0  0  0
M  CHG  1   6   1
M  END
> <Source File Index>
1

> <stars>
0

> <prepared>
1

> <Potential Energy-S-OPLS>
-663.841

> <PDB EXPDTA TEMPERATURE>
100

> <PDB RESOLUTION>
1.48

> <Source File>
5g4o.pdb

> <Source Path>
C:\Users\yujie\Desktop\F

> <entry id>
21

> <PDB EXPDTA>
X-RAY DIFFRACTION

> <PDB ID>
5G4O

> <PDB TITLE>
CRYSTAL STRUCTURE OF THE P53 CANCER MUTANT Y220C IN COMPLEX WITH A TRIFLUORINATED DERIVATIVE OF THE SMALL MOLECULE STABILIZER PHIKAN083

$$$$
