5G4O 1_bad4
                    3D
 Schrodinger Suite 2024-1.
 40 42  0  0  1  0            999 V2000
   91.3613   94.3027  -44.6607 C   0  0  0  0  0  0
   92.9613   95.5270  -40.8474 F   0  0  0  0  0  0
   91.6134   94.7263  -43.3609 N   0  0  0  0  0  0
   90.8714   95.3888  -45.4335 C   0  0  0  0  0  0
   91.2572   94.3245  -40.2899 F   0  0  0  0  0  0
   91.6757  100.9290  -43.1871 N   0  3  0  0  0  0
   90.8919   96.5466  -44.5750 C   0  0  0  0  0  0
   93.2331   93.4397  -40.4157 F   0  0  0  0  0  0
   91.1889   96.0635  -43.2652 C   0  0  0  0  0  0
   91.5088   93.0144  -45.2195 C   0  0  0  0  0  0
   91.1004   92.7671  -46.5383 C   0  0  0  0  0  0
   90.5645   93.8157  -47.3020 C   0  0  0  0  0  0
   90.4790   95.1165  -46.7635 C   0  0  0  0  0  0
   91.0119   96.9158  -42.1538 C   0  0  0  0  0  0
   90.7220   98.2696  -42.3290 C   0  0  0  0  0  0
   90.6026   98.8005  -43.6219 C   0  0  0  0  0  0
   90.6398   97.9335  -44.7385 C   0  0  0  0  0  0
   92.1923   93.8219  -42.3810 C   0  0  0  0  0  0
   92.4019   94.3230  -40.9552 C   0  0  0  0  0  0
   90.4520  100.3002  -43.7478 C   0  0  0  0  0  0
   92.7748  101.0639  -44.1693 C   0  0  0  0  0  0
   91.4133  102.1749  -42.4308 C   0  0  0  0  0  0
   92.0123  100.2633  -42.5015 H   0  0  0  0  0  0
   91.8812   92.1889  -44.6288 H   0  0  0  0  0  0
   91.1725   91.7676  -46.9467 H   0  0  0  0  0  0
   90.2172   93.6169  -48.3053 H   0  0  0  0  0  0
   90.0554   95.9093  -47.3584 H   0  0  0  0  0  0
   91.0502   96.5660  -41.1372 H   0  0  0  0  0  0
   90.6042   98.8913  -41.4520 H   0  0  0  0  0  0
   90.4679   98.3091  -45.7369 H   0  0  0  0  0  0
   93.1635   93.5280  -42.7802 H   0  0  0  0  0  0
   91.5890   92.9136  -42.3499 H   0  0  0  0  0  0
   90.2786  100.6037  -44.7817 H   0  0  0  0  0  0
   89.5655  100.5918  -43.1790 H   0  0  0  0  0  0
   93.6812  101.4068  -43.6704 H   0  0  0  0  0  0
   93.0049  100.1052  -44.6376 H   0  0  0  0  0  0
   92.5291  101.7792  -44.9555 H   0  0  0  0  0  0
   92.3305  102.5415  -41.9663 H   0  0  0  0  0  0
   91.0198  102.9612  -43.0765 H   0  0  0  0  0  0
   90.6946  101.9983  -41.6274 H   0  0  0  0  0  0
  1  3  1  0  0  0
  1  4  2  0  0  0
  1 10  1  0  0  0
  2 19  1  0  0  0
  3  9  1  0  0  0
  3 18  1  0  0  0
  4  7  1  0  0  0
  4 13  1  0  0  0
  5 19  1  0  0  0
  6 20  1  0  0  0
  6 21  1  0  0  0
  6 22  1  0  0  0
  6 23  1  0  0  0
  7  9  2  0  0  0
  7 17  1  0  0  0
  8 19  1  0  0  0
  9 14  1  0  0  0
 10 11  2  0  0  0
 10 24  1  0  0  0
 11 12  1  0  0  0
 11 25  1  0  0  0
 12 13  2  0  0  0
 12 26  1  0  0  0
 13 27  1  0  0  0
 14 15  2  0  0  0
 14 28  1  0  0  0
 15 16  1  0  0  0
 15 29  1  0  0  0
 16 17  2  0  0  0
 16 20  1  0  0  0
 17 30  1  0  0  0
 18 19  1  0  0  0
 18 31  1  0  0  0
 18 32  1  0  0  0
 20 33  1  0  0  0
 20 34  1  0  0  0
 21 35  1  0  0  0
 21 36  1  0  0  0
 21 37  1  0  0  0
 22 38  1  0  0  0
 22 39  1  0  0  0
 22 40  1  0  0  0
M  CHG  1   6   1
M  END
> <Source File Index>
1

> <stars>
0

> <PDB EXPDTA TEMPERATURE>
100

> <Source File Index>
1

> <entry id>
21

> <prepared>
1

> <stars>
0

> <PDB EXPDTA TEMPERATURE>
100

> <PDB RESOLUTION>
1.48

> <PDB RESOLUTION>
1.48

> <Potential Energy-S-OPLS>
-663.841

> <Source File>
5G4O_-_prepared.pdb

> <Source Path>
C:\Users\yujie\Desktop\F

> <entry id>
20

> <PDB EXPDTA>
X-RAY DIFFRACTION

> <PDB ID>
5G4O

> <PDB TITLE>
CRYSTAL STRUCTURE OF THE P53 CANCER MUTANT Y220C IN COMPLEX WITH A TRIFLUORINATED DERIVATIVE OF THE SMALL MOLECULE STABILIZER PHIKAN083

> <PDB EXPDTA>
X-RAY DIFFRACTION

> <PDB ID>
5G4O

> <PDB TITLE>
CRYSTAL STRUCTURE OF THE P53 CANCER MUTANT Y220C IN COMPLEX WITH A TRIFLUORINATED DERIVATIVE OF THE SMALL MOLECULE STABILIZER PHIKAN083

> <Source File>
5g4o.pdb

> <Source Path>
C:\Users\yujie\Desktop\F

$$$$
