protein_124_ligand
                    3D
 Schrodinger Suite 2024-1.
 35 38  0  0  1  0            999 V2000
   42.4489   -1.1611    8.0919 F   0  0  0  0  0  0
   42.6414    0.1243    8.4634 C   0  0  0  0  0  0
   43.8274    0.5044    9.1200 C   0  0  0  0  0  0
   44.0151    1.8456    9.5156 C   0  0  0  0  0  0
   43.0225    2.8053    9.2114 C   0  0  0  0  0  0
   43.2128    4.1466    9.5374 N   0  0  0  0  0  0
   44.5847    4.6094    9.4914 C   0  0  1  0  0  0
   44.7265    6.1259    9.6172 C   0  0  0  0  0  0
   45.5620    6.8209    8.7223 C   0  0  0  0  0  0
   45.6746    8.2170    8.8332 C   0  0  0  0  0  0
   44.9556    8.8655    9.8480 C   0  0  0  0  0  0
   44.1428    8.2238   10.7043 N   0  0  0  0  0  0
   44.0344    6.8810   10.5896 C   0  0  0  0  0  0
   45.4589    3.7820   10.4635 C   0  0  2  0  0  0
   45.2391    2.2385   10.3357 C   0  0  1  0  0  0
   45.0836    1.7851   11.7646 C   0  0  0  0  0  0
   45.0889    2.7931   12.6295 C   0  0  0  0  0  0
   45.2613    4.1246   11.9641 C   0  0  0  0  0  0
   41.8342    2.4175    8.5635 C   0  0  0  0  0  0
   40.8849    3.3397    8.2774 F   0  0  0  0  0  0
   41.6395    1.0751    8.2008 C   0  0  0  0  0  0
   44.5864   -0.2363    9.3296 H   0  0  0  0  0  0
   42.4440    4.8089    9.3991 H   0  0  0  0  0  0
   44.9305    4.3675    8.4872 H   0  0  0  0  0  0
   46.1086    6.2951    7.9551 H   0  0  0  0  0  0
   46.3106    8.7726    8.1620 H   0  0  0  0  0  0
   45.0257    9.9365    9.9686 H   0  0  0  0  0  0
   43.3533    6.4097   11.2819 H   0  0  0  0  0  0
   46.5065    3.9770   10.2294 H   0  0  0  0  0  0
   46.1237    1.7658    9.9047 H   0  0  0  0  0  0
   44.9336    0.7514   12.0317 H   0  0  0  0  0  0
   44.9263    2.7067   13.6915 H   0  0  0  0  0  0
   46.1103    4.6657   12.3819 H   0  0  0  0  0  0
   44.3527    4.6910   12.1521 H   0  0  0  0  0  0
   40.7261    0.7753    7.7135 H   0  0  0  0  0  0
  1  2  1  0  0  0
  2 21  1  0  0  0
  2  3  2  0  0  0
  3  4  1  0  0  0
  3 22  1  0  0  0
  4 15  1  0  0  0
  4  5  2  0  0  0
  5  6  1  0  0  0
  5 19  1  0  0  0
  6  7  1  0  0  0
  6 23  1  0  0  0
  7  8  1  0  0  0
  7 14  1  0  0  0
  7 24  1  0  0  0
  8 13  1  0  0  0
  8  9  2  0  0  0
  9 10  1  0  0  0
  9 25  1  0  0  0
 10 11  2  0  0  0
 10 26  1  0  0  0
 11 12  1  0  0  0
 11 27  1  0  0  0
 12 13  2  0  0  0
 13 28  1  0  0  0
 14 18  1  0  0  0
 14 15  1  0  0  0
 14 29  1  0  0  0
 15 16  1  0  0  0
 15 30  1  0  0  0
 16 17  2  0  0  0
 16 31  1  0  0  0
 17 18  1  0  0  0
 17 32  1  0  0  0
 18 33  1  0  0  0
 18 34  1  0  0  0
 19 20  1  0  0  0
 19 21  2  0  0  0
 21 35  1  0  0  0
M  END
> <Tot Q>
0

> <flags>
0

> <Source File Index>
3

> <stars>
0

> <subgroup collapsed>
0

> <Ionization Penalty>
0.0486

> <State Penalty>
0.0485

> <docking score>
-9.28827

> <glide emodel>
-57.5012

> <glide gscore>
-9.33677

> <PDB EXPDTA TEMPERATURE>
100

> <PDB RESOLUTION>
2.3

> <Source File>
glide-dock_SP_124_pv.maegz

> <Source Path>
C:\Users\yujie\Desktop\1b1\mutation\glide-dock_SP_124

> <entry id>
6

> <subgroup title>
glide-dock_SP_124_pv

> <subgroupid>
glide-dock_SP_124_pv

> <PDB EXPDTA>
X-RAY DIFFRACTION

> <PDB ID>
7RAD

> <PDB TITLE>
CRYSTAL STRUCTURE ANALYSIS OF ALDH1B1

$$$$
