lig41
                    3D
 Schrodinger Suite 2024-1.
 41 44  0  0  1  0            999 V2000
  -10.2031   45.4268    2.8527 N   0  0  0  0  0  0
  -11.2492   46.2064    3.1345 C   0  0  0  0  0  0
  -12.2331   46.2167    2.3960 O   0  0  0  0  0  0
  -11.2031   47.0169    4.4143 C   0  0  0  0  0  0
  -12.3563   47.7040    4.8337 C   0  0  0  0  0  0
  -12.4196   48.4281    6.0270 C   0  0  0  0  0  0
  -11.2566   48.4557    6.7967 C   0  0  0  0  0  0
  -10.9278   49.0165    8.0067 N   0  0  0  0  0  0
   -9.6021   48.7300    8.2573 C   0  0  0  0  0  0
   -8.8571   49.2255    9.4551 C   0  0  0  0  0  0
   -7.4596   49.2671    9.4535 C   0  0  0  0  0  0
   -6.7710   49.8043   10.5374 C   0  0  0  0  0  0
   -7.4679   50.3206   11.6408 C   0  0  0  0  0  0
   -6.7065   51.0070   12.7420 C   0  0  0  0  0  0
   -5.4756   50.9436   12.7821 O   0  0  0  0  0  0
   -7.3960   51.9834   13.6367 C   0  0  0  0  0  0
   -7.0687   53.3409   13.5359 C   0  0  0  0  0  0
   -7.6952   54.2759   14.3555 C   0  0  0  0  0  0
   -8.6302   53.8518   15.2963 C   0  0  0  0  0  0
   -9.4252   55.0103   16.3012 Cl  0  0  0  0  0  0
   -8.9367   52.4991   15.4270 C   0  0  0  0  0  0
   -8.3196   51.5616   14.6005 C   0  0  0  0  0  0
   -8.8656   50.2193   11.6596 C   0  0  0  0  0  0
   -9.5512   49.6765   10.5795 C   0  0  0  0  0  0
   -9.0610   48.0152    7.3001 N   0  0  0  0  0  0
  -10.0642   47.8157    6.3922 C   0  0  0  0  0  0
  -10.0356   47.0834    5.1991 C   0  0  0  0  0  0
  -11.5037   49.5681    8.6227 H   0  0  0  0  0  0
  -10.2294   44.8358    2.0335 H   0  0  0  0  0  0
   -9.4281   45.3367    3.4907 H   0  0  0  0  0  0
  -13.2497   47.6671    4.2242 H   0  0  0  0  0  0
  -13.3247   48.9305    6.3362 H   0  0  0  0  0  0
   -6.9016   48.9115    8.5979 H   0  0  0  0  0  0
   -5.6916   49.8527   10.4848 H   0  0  0  0  0  0
   -6.3460   53.6810   12.8054 H   0  0  0  0  0  0
   -7.4543   55.3246   14.2604 H   0  0  0  0  0  0
   -9.6550   52.1829   16.1699 H   0  0  0  0  0  0
   -8.5613   50.5144   14.7196 H   0  0  0  0  0  0
   -9.4525   50.5853   12.4885 H   0  0  0  0  0  0
  -10.6284   49.6308   10.6195 H   0  0  0  0  0  0
   -9.1186   46.5875    4.9139 H   0  0  0  0  0  0
  1  2  1  0  0  0
  1 29  1  0  0  0
  1 30  1  0  0  0
  2  3  2  0  0  0
  2  4  1  0  0  0
  4 27  1  0  0  0
  4  5  2  0  0  0
  5  6  1  0  0  0
  5 31  1  0  0  0
  6  7  2  0  0  0
  6 32  1  0  0  0
  7 26  1  0  0  0
  7  8  1  0  0  0
  8 28  1  0  0  0
  8  9  1  0  0  0
  9 10  1  0  0  0
  9 25  2  0  0  0
 10 24  1  0  0  0
 10 11  2  0  0  0
 11 12  1  0  0  0
 11 33  1  0  0  0
 12 13  2  0  0  0
 12 34  1  0  0  0
 13 14  1  0  0  0
 13 23  1  0  0  0
 14 15  2  0  0  0
 14 16  1  0  0  0
 16 22  1  0  0  0
 16 17  2  0  0  0
 17 18  1  0  0  0
 17 35  1  0  0  0
 18 19  2  0  0  0
 18 36  1  0  0  0
 19 20  1  0  0  0
 19 21  1  0  0  0
 21 22  2  0  0  0
 21 37  1  0  0  0
 22 38  1  0  0  0
 23 24  2  0  0  0
 23 39  1  0  0  0
 24 40  1  0  0  0
 25 26  1  0  0  0
 26 27  2  0  0  0
 27 41  1  0  0  0
M  END
> <Tot Q>
0

> <Source File Index>
77

> <i_f3d_flags>
0

> <subgroup collapsed>
0

> <Ionization Penalty>
0.0497

> <State Penalty>
0.3877

> <docking score>
-5.92435

> <glide emodel>
-67.6284

> <glide gscore>
-6.31207

> <Source File>
Sries43521_dock_SP_confgen_100_lib.maegz

> <Source Path>
C:\Users\yujie\Desktop\two_s\data

> <entry id>
90227

> <subgroup title>
Sries43521_dock_SP_confgen_100_lib

> <subgroupid>
Sries43521_dock_SP_confgen_100_lib

$$$$
