lig13
                    3D
 Schrodinger Suite 2023-4.
 71 74  0  0  1  0            999 V2000
   79.8620   18.3401   73.9170 C   0  0  0  0  0  0
   79.3637   17.6912   75.0816 O   0  0  0  0  0  0
   79.6302   16.3479   75.2770 C   0  0  0  0  0  0
   80.3583   15.5620   74.3664 C   0  0  0  0  0  0
   80.6015   14.2136   74.6196 C   0  0  0  0  0  0
   80.1024   13.6228   75.7735 C   0  0  0  0  0  0
   79.3761   14.3860   76.6839 C   0  0  0  0  0  0
   79.1582   15.7495   76.4567 C   0  0  0  0  0  0
   78.5141   16.5884   77.5583 C   0  0  0  0  0  0
   77.1085   16.7442   77.3999 O   0  0  0  0  0  0
   76.3461   15.5457   77.4832 C   0  0  0  0  0  0
   74.9528   15.8634   78.0437 C   0  0  0  0  0  0
   74.1931   16.9440   77.2609 C   0  0  0  0  0  0
   74.2335   18.1450   78.0221 O   0  0  0  0  0  0
   74.0544   19.3620   77.4022 C   0  0  0  0  0  0
   73.6096   19.5343   76.0814 C   0  0  0  0  0  0
   73.5123   20.8141   75.5369 C   0  0  0  0  0  0
   73.8602   21.9233   76.3138 C   0  0  0  0  0  0
   73.8170   23.2228   75.7699 N   0  0  0  0  0  0
   72.6275   23.9127   75.8157 C   0  0  0  0  0  0
   71.5595   23.4059   76.1678 O   0  0  0  0  0  0
   72.6565   25.4062   75.4192 C   0  0  0  0  0  0
   74.0593   26.0228   75.4807 N   0  3  0  0  0  0
   75.0317   25.1668   74.6757 C   0  0  0  0  0  0
   75.1459   23.7816   75.3533 C   0  0  2  0  0  0
   76.0659   22.8476   74.5304 C   0  0  0  0  0  0
   75.3804   22.3153   73.4005 O   0  0  0  0  0  0
   75.9261   21.0970   72.8878 C   0  0  0  0  0  0
   77.1579   21.2945   72.0042 C   0  0  0  0  0  0
   77.9101   20.1703   71.6524 C   0  0  0  0  0  0
   79.0203   20.2981   70.8229 C   0  0  0  0  0  0
   79.3797   21.5547   70.3428 C   0  0  0  0  0  0
   80.7514   21.7091   69.3087 Cl  0  0  0  0  0  0
   78.6380   22.6840   70.6872 C   0  0  0  0  0  0
   77.5229   22.5536   71.5126 C   0  0  0  0  0  0
   74.2744   21.7531   77.6339 C   0  0  0  0  0  0
   74.3562   20.4782   78.1768 C   0  0  0  0  0  0
   75.6971   23.9231   76.2813 H   0  0  0  0  0  0
   79.4705   19.3548   73.8793 H   0  0  0  0  0  0
   80.9491   18.4055   73.9361 H   0  0  0  0  0  0
   79.5578   17.8413   72.9973 H   0  0  0  0  0  0
   80.7550   15.9816   73.4580 H   0  0  0  0  0  0
   81.1680   13.6268   73.9110 H   0  0  0  0  0  0
   80.2939   12.5777   75.9688 H   0  0  0  0  0  0
   79.0278   13.9222   77.5950 H   0  0  0  0  0  0
   78.7255   16.1563   78.5393 H   0  0  0  0  0  0
   78.9828   17.5726   77.5771 H   0  0  0  0  0  0
   76.2785   15.0822   76.4972 H   0  0  0  0  0  0
   76.8224   14.8238   78.1474 H   0  0  0  0  0  0
   74.3601   14.9539   78.0882 H   0  0  0  0  0  0
   75.0564   16.1713   79.0816 H   0  0  0  0  0  0
   74.6485   17.0682   76.2795 H   0  0  0  0  0  0
   73.1582   16.6460   77.1071 H   0  0  0  0  0  0
   73.3414   18.6911   75.4659 H   0  0  0  0  0  0
   73.1856   20.9421   74.5140 H   0  0  0  0  0  0
   72.2901   25.5340   74.3999 H   0  0  0  0  0  0
   72.0421   25.9954   76.1018 H   0  0  0  0  0  0
   74.0500   26.9832   75.1355 H   0  0  0  0  0  0
   74.6656   25.1240   73.6478 H   0  0  0  0  0  0
   75.9622   25.7256   74.6989 H   0  0  0  0  0  0
   76.9729   23.3672   74.2182 H   0  0  0  0  0  0
   76.3949   22.0435   75.1925 H   0  0  0  0  0  0
   76.1394   20.3934   73.6949 H   0  0  0  0  0  0
   75.1588   20.6216   72.2815 H   0  0  0  0  0  0
   77.6264   19.1919   72.0131 H   0  0  0  0  0  0
   79.5957   19.4263   70.5471 H   0  0  0  0  0  0
   78.9202   23.6566   70.3085 H   0  0  0  0  0  0
   76.9440   23.4321   71.7587 H   0  0  0  0  0  0
   74.5345   22.6096   78.2386 H   0  0  0  0  0  0
   74.6913   20.3529   79.1954 H   0  0  0  0  0  0
   74.4080   26.0984   76.4375 H   0  0  0  0  0  0
  1  2  1  0  0  0
  1 39  1  0  0  0
  1 40  1  0  0  0
  1 41  1  0  0  0
  2  3  1  0  0  0
  3  8  1  0  0  0
  3  4  2  0  0  0
  4  5  1  0  0  0
  4 42  1  0  0  0
  5  6  2  0  0  0
  5 43  1  0  0  0
  6  7  1  0  0  0
  6 44  1  0  0  0
  7  8  2  0  0  0
  7 45  1  0  0  0
  8  9  1  0  0  0
  9 10  1  0  0  0
  9 46  1  0  0  0
  9 47  1  0  0  0
 10 11  1  0  0  0
 11 12  1  0  0  0
 11 48  1  0  0  0
 11 49  1  0  0  0
 12 13  1  0  0  0
 12 50  1  0  0  0
 12 51  1  0  0  0
 13 14  1  0  0  0
 13 52  1  0  0  0
 13 53  1  0  0  0
 14 15  1  0  0  0
 15 37  1  0  0  0
 15 16  2  0  0  0
 16 17  1  0  0  0
 16 54  1  0  0  0
 17 18  2  0  0  0
 17 55  1  0  0  0
 18 19  1  0  0  0
 18 36  1  0  0  0
 19 25  1  0  0  0
 19 20  1  0  0  0
 20 21  2  0  0  0
 20 22  1  0  0  0
 22 23  1  0  0  0
 22 56  1  0  0  0
 22 57  1  0  0  0
 23 24  1  0  0  0
 23 58  1  0  0  0
 23 71  1  0  0  0
 24 25  1  0  0  0
 24 59  1  0  0  0
 24 60  1  0  0  0
 25 38  1  0  0  0
 25 26  1  0  0  0
 26 27  1  0  0  0
 26 61  1  0  0  0
 26 62  1  0  0  0
 27 28  1  0  0  0
 28 29  1  0  0  0
 28 63  1  0  0  0
 28 64  1  0  0  0
 29 35  1  0  0  0
 29 30  2  0  0  0
 30 31  1  0  0  0
 30 65  1  0  0  0
 31 32  2  0  0  0
 31 66  1  0  0  0
 32 33  1  0  0  0
 32 34  1  0  0  0
 34 35  2  0  0  0
 34 67  1  0  0  0
 35 68  1  0  0  0
 36 37  2  0  0  0
 36 69  1  0  0  0
 37 70  1  0  0  0
M  CHG  1  23   1
M  END
> <i_epik_Tot_Q>
1

> <i_epik_Tot_abs_Q>
1

> <i_i_glide_confnum>
265

> <i_i_glide_lignum>
28

> <i_i_glide_posenum>
60

> <i_i_glide_rotatable_bonds>
13

> <i_lp_mmshare_version>
51139

> <i_m_source_file_index>
14

> <i_f3d_flags>
0

> <b_lp_Chiralities_Consistent>
1

> <r_epik_Charging_Adjusted_Penalty>
1.63232

> <r_epik_Ionization_Penalty>
0.8005

> <r_epik_Ionization_Penalty_Charging>
0.8005

> <r_epik_Ionization_Penalty_Neutral>
0

> <r_epik_State_Penalty>
0.8318

> <r_i_docking_score>
-9.04649

> <r_i_glide_ecoul>
-7.60769

> <r_i_glide_eff_state_penalty>
0.831782

> <r_i_glide_einternal>
11.9081

> <r_i_glide_emodel>
-118.858

> <r_i_glide_energy>
-66.4218

> <r_i_glide_erotb>
0.818338

> <r_i_glide_esite>
-0.209978

> <r_i_glide_evdw>
-58.8141

> <r_i_glide_gscore>
-9.87827

> <r_i_glide_hbond>
-0.504027

> <r_i_glide_ligand_efficiency>
-0.2445

> <r_i_glide_ligand_efficiency_ln>
-1.96197

> <r_i_glide_ligand_efficiency_sa>
-0.814728

> <r_i_glide_lipo>
-5.34549

> <r_i_glide_metal>
-0

> <r_i_glide_rewards>
-0.555256

> <r_lp_Energy>
56.9137

> <r_lp_tautomer_probability>
1

> <s_epik_cmdline>
J2VwaWtfcHl0aG9uJywgJy1waHQnLCAnMi4wJywgJy1waCcsICc3LjQnLCAnLXRuJywgJzgnLCAnLW1hJywgJzIwMCcsICctaW1hZScsICc8aW5maWxlLm1hZT4nLCAnLW9tYWUnLCAnPG91dGZpbGUubWFlPic=

> <s_epik_input>
W0NIM11PYzFbY0hdW2NIXVtjSF1bY0hdYzFbQ0gyXU9bQ0gyXVtDSDJdW0NIMl1PYzJbY0hdW2NIXWMoW2NIXVtjSF0yKU4zQyg9TylbQ0gyXVtOSF1bQ0gyXVtDQEBIXTNbQ0gyXU9bQ0gyXWM0W2NIXVtjSF1jKENsKVtjSF1bY0hdNA==

> <s_i_glide_gridfile>
Sries12988-001-gridgen

> <s_lp_Force_Field>
OPLS3e

> <s_lp_Variant>
lig13-2

> <s_m_source_file>
/home/user-home/yujie/0_PBCNetv2/data/0_0_high_sim/0_noncov/Sries12206/ligprep_input.csv

$$$$
