lig0
                    3D
 Schrodinger Suite 2023-4.
 71 74  0  0  1  0            999 V2000
   79.8878   18.4232   75.5510 C   0  0  0  0  0  0
   78.9388   17.3775   75.5966 O   0  0  0  0  0  0
   79.4606   16.1101   75.5447 C   0  0  0  0  0  0
   80.4717   15.7515   74.6406 C   0  0  0  0  0  0
   81.0109   14.4668   74.6581 C   0  0  0  0  0  0
   80.5572   13.5395   75.5910 C   0  0  0  0  0  0
   79.5580   13.9040   76.4948 C   0  0  0  0  0  0
   78.9711   15.1651   76.4488 C   0  0  0  0  0  0
   77.8148   15.4994   77.3827 C   0  0  0  0  0  0
   76.6808   15.8160   76.5817 O   0  0  0  0  0  0
   75.4421   15.2254   76.9456 C   0  0  0  0  0  0
   74.8309   15.8559   78.2089 C   0  0  0  0  0  0
   74.7481   17.3874   78.1670 C   0  0  0  0  0  0
   73.9646   17.8392   77.0680 O   0  0  0  0  0  0
   73.8988   19.1991   76.8305 C   0  0  0  0  0  0
   74.3595   20.1833   77.7221 C   0  0  0  0  0  0
   74.3256   21.5293   77.3659 C   0  0  0  0  0  0
   73.8142   21.8980   76.1209 C   0  0  0  0  0  0
   73.8832   23.2390   75.6981 N   0  0  0  0  0  0
   72.7656   24.0308   75.8217 C   0  0  0  0  0  0
   71.6665   23.6026   76.1801 O   0  0  0  0  0  0
   72.9087   25.5245   75.4537 C   0  0  0  0  0  0
   74.3578   26.0230   75.4815 N   0  3  0  0  0  0
   75.2593   25.1044   74.6695 C   0  0  0  0  0  0
   75.2562   23.7052   75.3235 C   0  0  2  0  0  0
   76.1107   22.7476   74.4586 C   0  0  0  0  0  0
   77.4582   23.2070   74.5132 O   0  0  0  0  0  0
   78.4393   22.2756   74.0675 C   0  0  0  0  0  0
   78.3582   22.0282   72.5653 C   0  0  0  0  0  0
   78.3458   23.1118   71.6819 C   0  0  0  0  0  0
   78.3329   22.8890   70.3074 C   0  0  0  0  0  0
   78.3322   21.5828   69.8218 C   0  0  0  0  0  0
   78.3435   20.4978   70.6968 C   0  0  0  0  0  0
   78.3537   20.7199   72.0715 C   0  0  0  0  0  0
   73.3140   20.9298   75.2495 C   0  0  0  0  0  0
   73.3511   19.5878   75.6092 C   0  0  0  0  0  0
   75.7911   23.7663   76.2732 H   0  0  0  0  0  0
   79.5564   19.2229   76.2122 H   0  0  0  0  0  0
   80.8820   18.1303   75.8950 H   0  0  0  0  0  0
   79.9565   18.8141   74.5352 H   0  0  0  0  0  0
   80.8442   16.4680   73.9246 H   0  0  0  0  0  0
   81.7871   14.1981   73.9582 H   0  0  0  0  0  0
   80.9867   12.5485   75.6246 H   0  0  0  0  0  0
   79.2215   13.2177   77.2469 H   0  0  0  0  0  0
   77.6210   14.6667   78.0640 H   0  0  0  0  0  0
   78.0683   16.3556   78.0096 H   0  0  0  0  0  0
   74.7542   15.3658   76.1127 H   0  0  0  0  0  0
   75.5593   14.1455   77.0533 H   0  0  0  0  0  0
   73.8333   15.4468   78.3695 H   0  0  0  0  0  0
   75.4131   15.5637   79.0812 H   0  0  0  0  0  0
   74.2797   17.7370   79.0815 H   0  0  0  0  0  0
   75.7561   17.8095   78.1277 H   0  0  0  0  0  0
   74.7795   19.9243   78.6809 H   0  0  0  0  0  0
   74.7200   22.2790   78.0393 H   0  0  0  0  0  0
   72.5245   25.7098   74.4501 H   0  0  0  0  0  0
   72.3658   26.1494   76.1629 H   0  0  0  0  0  0
   74.4077   26.9847   75.1444 H   0  0  0  0  0  0
   74.8847   25.1081   73.6444 H   0  0  0  0  0  0
   76.2460   25.5621   74.6818 H   0  0  0  0  0  0
   76.0697   21.7337   74.8592 H   0  0  0  0  0  0
   75.7469   22.7036   73.4305 H   0  0  0  0  0  0
   79.4214   22.6946   74.2878 H   0  0  0  0  0  0
   78.3705   21.3460   74.6366 H   0  0  0  0  0  0
   78.3625   24.1233   72.0628 H   0  0  0  0  0  0
   78.3373   23.7252   69.6230 H   0  0  0  0  0  0
   78.3308   21.4100   68.7558 H   0  0  0  0  0  0
   78.3530   19.4894   70.3093 H   0  0  0  0  0  0
   78.3735   19.8763   72.7463 H   0  0  0  0  0  0
   72.9319   21.2146   74.2823 H   0  0  0  0  0  0
   72.9846   18.8411   74.9204 H   0  0  0  0  0  0
   74.7190   26.0921   76.4374 H   0  0  0  0  0  0
  1  2  1  0  0  0
  1 38  1  0  0  0
  1 39  1  0  0  0
  1 40  1  0  0  0
  2  3  1  0  0  0
  3  8  1  0  0  0
  3  4  2  0  0  0
  4  5  1  0  0  0
  4 41  1  0  0  0
  5  6  2  0  0  0
  5 42  1  0  0  0
  6  7  1  0  0  0
  6 43  1  0  0  0
  7  8  2  0  0  0
  7 44  1  0  0  0
  8  9  1  0  0  0
  9 10  1  0  0  0
  9 45  1  0  0  0
  9 46  1  0  0  0
 10 11  1  0  0  0
 11 12  1  0  0  0
 11 47  1  0  0  0
 11 48  1  0  0  0
 12 13  1  0  0  0
 12 49  1  0  0  0
 12 50  1  0  0  0
 13 14  1  0  0  0
 13 51  1  0  0  0
 13 52  1  0  0  0
 14 15  1  0  0  0
 15 36  1  0  0  0
 15 16  2  0  0  0
 16 17  1  0  0  0
 16 53  1  0  0  0
 17 18  2  0  0  0
 17 54  1  0  0  0
 18 19  1  0  0  0
 18 35  1  0  0  0
 19 25  1  0  0  0
 19 20  1  0  0  0
 20 21  2  0  0  0
 20 22  1  0  0  0
 22 23  1  0  0  0
 22 55  1  0  0  0
 22 56  1  0  0  0
 23 24  1  0  0  0
 23 57  1  0  0  0
 23 71  1  0  0  0
 24 25  1  0  0  0
 24 58  1  0  0  0
 24 59  1  0  0  0
 25 37  1  0  0  0
 25 26  1  0  0  0
 26 27  1  0  0  0
 26 60  1  0  0  0
 26 61  1  0  0  0
 27 28  1  0  0  0
 28 29  1  0  0  0
 28 62  1  0  0  0
 28 63  1  0  0  0
 29 34  1  0  0  0
 29 30  2  0  0  0
 30 31  1  0  0  0
 30 64  1  0  0  0
 31 32  2  0  0  0
 31 65  1  0  0  0
 32 33  1  0  0  0
 32 66  1  0  0  0
 33 34  2  0  0  0
 33 67  1  0  0  0
 34 68  1  0  0  0
 35 36  2  0  0  0
 35 69  1  0  0  0
 36 70  1  0  0  0
M  CHG  1  23   1
M  END
> <i_epik_Tot_Q>
1

> <i_epik_Tot_abs_Q>
1

> <i_i_glide_confnum>
94

> <i_i_glide_lignum>
2

> <i_i_glide_posenum>
58

> <i_i_glide_rotatable_bonds>
13

> <i_lp_mmshare_version>
51139

> <i_m_source_file_index>
1

> <i_f3d_flags>
0

> <b_lp_Chiralities_Consistent>
1

> <r_epik_Charging_Adjusted_Penalty>
1.62731

> <r_epik_Ionization_Penalty>
0.7981

> <r_epik_Ionization_Penalty_Charging>
0.7981

> <r_epik_Ionization_Penalty_Neutral>
0

> <r_epik_State_Penalty>
0.8292

> <r_i_docking_score>
-8.8388

> <r_i_glide_ecoul>
-7.22753

> <r_i_glide_eff_state_penalty>
0.829177

> <r_i_glide_einternal>
16.2857

> <r_i_glide_emodel>
-113.712

> <r_i_glide_energy>
-65.9662

> <r_i_glide_erotb>
0.926661

> <r_i_glide_esite>
-0.21731

> <r_i_glide_evdw>
-58.7387

> <r_i_glide_gscore>
-9.66797

> <r_i_glide_hbond>
-0.574049

> <r_i_glide_ligand_efficiency>
-0.245522

> <r_i_glide_ligand_efficiency_ln>
-1.92839

> <r_i_glide_ligand_efficiency_sa>
-0.810696

> <r_i_glide_lipo>
-5.19532

> <r_i_glide_metal>
-0

> <r_i_glide_rewards>
-0.586888

> <r_lp_Energy>
57.3518

> <r_lp_tautomer_probability>
1

> <s_epik_cmdline>
J2VwaWtfcHl0aG9uJywgJy1waHQnLCAnMi4wJywgJy1waCcsICc3LjQnLCAnLXRuJywgJzgnLCAnLW1hJywgJzIwMCcsICctaW1hZScsICc8aW5maWxlLm1hZT4nLCAnLW9tYWUnLCAnPG91dGZpbGUubWFlPic=

> <s_epik_input>
W0NIM11PYzFbY0hdW2NIXVtjSF1bY0hdYzFbQ0gyXU9bQ0gyXVtDSDJdW0NIMl1PYzJbY0hdW2NIXWMoW2NIXVtjSF0yKU4zQyg9TylbQ0gyXVtOSF1bQ0gyXVtDQEBIXTNbQ0gyXU9bQ0gyXWM0W2NIXVtjSF1bY0hdW2NIXVtjSF00

> <s_i_glide_gridfile>
Sries12988-001-gridgen

> <s_lp_Force_Field>
OPLS3e

> <s_lp_Variant>
lig0-2

> <s_m_source_file>
/home/user-home/yujie/0_PBCNetv2/data/0_0_high_sim/0_noncov/Sries12206/ligprep_input.csv

$$$$
