lig12
                    3D
 Schrodinger Suite 2024-1.
 70 73  0  0  1  0            999 V2000
   81.1978   13.1510   75.2668 C   0  0  0  0  0  0
   79.9770   13.8006   75.5775 O   0  0  0  0  0  0
   79.8862   15.1730   75.4434 C   0  0  0  0  0  0
   80.8648   15.9629   74.8214 C   0  0  0  0  0  0
   80.7159   17.3450   74.7495 C   0  0  0  0  0  0
   79.5841   17.9564   75.2803 C   0  0  0  0  0  0
   78.5990   17.1861   75.8830 C   0  0  0  0  0  0
   78.7453   15.7974   75.9668 C   0  0  0  0  0  0
   77.6488   14.9408   76.5750 C   0  0  0  0  0  0
   76.7101   15.7111   77.3178 O   0  0  0  0  0  0
   75.3728   15.2929   77.1063 C   0  0  0  0  0  0
   74.4692   15.8263   78.2233 C   0  0  0  0  0  0
   74.4168   17.3539   78.2836 C   0  0  0  0  0  0
   73.8873   17.8396   77.0622 O   0  0  0  0  0  0
   73.8842   19.1958   76.8261 C   0  0  0  0  0  0
   74.3167   20.1720   77.7419 C   0  0  0  0  0  0
   74.3579   21.5133   77.3663 C   0  0  0  0  0  0
   73.9633   21.8770   76.0777 C   0  0  0  0  0  0
   74.1714   23.1853   75.6112 N   0  0  0  0  0  0
   73.1352   24.0840   75.6099 C   0  0  0  0  0  0
   71.9964   23.8015   75.9948 O   0  0  0  0  0  0
   73.4177   25.4748   74.9819 C   0  0  0  0  0  0
   74.8208   25.8674   75.0812 N   0  0  1  0  0  0
   75.7325   24.8724   74.5543 C   0  0  0  0  0  0
   75.5910   23.5191   75.2780 C   0  0  2  0  0  0
   76.3909   22.4477   74.4925 C   0  0  0  0  0  0
   75.6507   22.0180   73.3518 O   0  0  0  0  0  0
   75.9867   20.7182   72.8782 C   0  0  0  0  0  0
   77.2256   20.7364   71.9949 C   0  0  0  0  0  0
   78.3001   19.8824   72.2635 C   0  0  0  0  0  0
   79.4154   19.8724   71.4242 C   0  0  0  0  0  0
   79.4603   20.7112   70.3094 C   0  0  0  0  0  0
   78.3878   21.5618   70.0348 C   0  0  0  0  0  0
   78.4330   22.5847   68.6460 Cl  0  0  0  0  0  0
   77.2752   21.5775   70.8780 C   0  0  0  0  0  0
   73.4642   20.9188   75.1961 C   0  0  0  0  0  0
   73.4294   19.5825   75.5708 C   0  0  0  0  0  0
   76.0866   23.6189   76.2454 H   0  0  0  0  0  0
   81.1096   12.0943   75.5163 H   0  0  0  0  0  0
   81.4281   13.2303   74.2055 H   0  0  0  0  0  0
   82.0217   13.5556   75.8559 H   0  0  0  0  0  0
   81.7609   15.5243   74.4078 H   0  0  0  0  0  0
   81.4867   17.9452   74.2889 H   0  0  0  0  0  0
   79.4658   19.0270   75.2293 H   0  0  0  0  0  0
   77.7218   17.6748   76.2799 H   0  0  0  0  0  0
   77.1876   14.4230   75.7335 H   0  0  0  0  0  0
   78.0632   14.1809   77.2391 H   0  0  0  0  0  0
   75.0286   15.6361   76.1319 H   0  0  0  0  0  0
   75.3343   14.2060   77.0817 H   0  0  0  0  0  0
   73.4601   15.4492   78.0788 H   0  0  0  0  0  0
   74.8035   15.4294   79.1818 H   0  0  0  0  0  0
   73.7519   17.6645   79.0814 H   0  0  0  0  0  0
   75.4129   17.7543   78.4855 H   0  0  0  0  0  0
   74.6599   19.9088   78.7304 H   0  0  0  0  0  0
   74.7367   22.2598   78.0527 H   0  0  0  0  0  0
   73.1112   25.4425   73.9367 H   0  0  0  0  0  0
   72.7976   26.2308   75.4673 H   0  0  0  0  0  0
   75.0965   26.2400   75.9994 H   0  0  0  0  0  0
   75.5292   24.7519   73.4869 H   0  0  0  0  0  0
   76.7571   25.2228   74.6653 H   0  0  0  0  0  0
   77.3732   22.8159   74.1879 H   0  0  0  0  0  0
   76.5805   21.6146   75.1739 H   0  0  0  0  0  0
   76.0919   20.0190   73.7067 H   0  0  0  0  0  0
   75.1585   20.3449   72.2814 H   0  0  0  0  0  0
   78.2709   19.2216   73.1179 H   0  0  0  0  0  0
   80.2509   19.2230   71.6401 H   0  0  0  0  0  0
   80.3243   20.7001   69.6588 H   0  0  0  0  0  0
   76.4420   22.2313   70.6580 H   0  0  0  0  0  0
   73.1577   21.2079   74.2047 H   0  0  0  0  0  0
   73.0843   18.8309   74.8734 H   0  0  0  0  0  0
  1  2  1  0  0  0
  1 39  1  0  0  0
  1 40  1  0  0  0
  1 41  1  0  0  0
  2  3  1  0  0  0
  3  8  1  0  0  0
  3  4  2  0  0  0
  4  5  1  0  0  0
  4 42  1  0  0  0
  5  6  2  0  0  0
  5 43  1  0  0  0
  6  7  1  0  0  0
  6 44  1  0  0  0
  7  8  2  0  0  0
  7 45  1  0  0  0
  8  9  1  0  0  0
  9 10  1  0  0  0
  9 46  1  0  0  0
  9 47  1  0  0  0
 10 11  1  0  0  0
 11 12  1  0  0  0
 11 48  1  0  0  0
 11 49  1  0  0  0
 12 13  1  0  0  0
 12 50  1  0  0  0
 12 51  1  0  0  0
 13 14  1  0  0  0
 13 52  1  0  0  0
 13 53  1  0  0  0
 14 15  1  0  0  0
 15 37  1  0  0  0
 15 16  2  0  0  0
 16 17  1  0  0  0
 16 54  1  0  0  0
 17 18  2  0  0  0
 17 55  1  0  0  0
 18 19  1  0  0  0
 18 36  1  0  0  0
 19 25  1  0  0  0
 19 20  1  0  0  0
 20 21  2  0  0  0
 20 22  1  0  0  0
 22 23  1  0  0  0
 22 56  1  0  0  0
 22 57  1  0  0  0
 23 24  1  0  0  0
 23 58  1  0  0  0
 24 25  1  0  0  0
 24 59  1  0  0  0
 24 60  1  0  0  0
 25 38  1  0  0  0
 25 26  1  0  0  0
 26 27  1  0  0  0
 26 61  1  0  0  0
 26 62  1  0  0  0
 27 28  1  0  0  0
 28 29  1  0  0  0
 28 63  1  0  0  0
 28 64  1  0  0  0
 29 35  1  0  0  0
 29 30  2  0  0  0
 30 31  1  0  0  0
 30 65  1  0  0  0
 31 32  2  0  0  0
 31 66  1  0  0  0
 32 33  1  0  0  0
 32 67  1  0  0  0
 33 34  1  0  0  0
 33 35  2  0  0  0
 35 68  1  0  0  0
 36 37  2  0  0  0
 36 69  1  0  0  0
 37 70  1  0  0  0
M  END
> <Tot Q>
0

> <Source File Index>
205

> <i_f3d_flags>
0

> <subgroup collapsed>
0

> <Ionization Penalty>
0.1768

> <State Penalty>
0.1662

> <docking score>
-8.9969

> <glide emodel>
-99.0928

> <glide gscore>
-9.16314

> <tautomer probability>
1

> <Source File>
Sries12206_dock_SP_confgen_100_lib.maegz

> <Source Path>
C:\Users\yujie\Desktop\two_s\data

> <entry id>
42906

> <subgroup title>
a

> <subgroupid>
Sries12206_dock_SP_confgen_100_lib

$$$$
