lig6
                    3D
 Schrodinger Suite 2023-4.
 75 78  0  0  1  0            999 V2000
   79.5673   24.4210   71.3573 C   0  0  0  0  0  0
   79.8983   23.2033   70.7034 O   0  0  0  0  0  0
   79.1972   22.0604   71.0339 C   0  0  0  0  0  0
   79.7692   20.8527   70.6332 C   0  0  0  0  0  0
   79.1737   19.6380   70.9619 C   0  0  0  0  0  0
   77.9865   19.6247   71.6875 C   0  0  0  0  0  0
   77.3712   20.8197   72.0740 C   0  0  0  0  0  0
   76.0226   20.7440   72.7874 C   0  0  0  0  0  0
   75.5784   21.9820   73.3483 O   0  0  0  0  0  0
   76.2030   22.3378   74.5768 C   0  0  0  0  0  0
   75.3324   23.3365   75.3730 C   0  0  1  0  0  0
   75.3789   24.7555   74.7577 C   0  0  0  0  0  0
   74.3582   25.6381   75.4812 N   0  3  0  0  0  0
   72.9531   25.0889   75.2015 C   0  0  0  0  0  0
   72.7978   23.6078   75.6141 C   0  0  0  0  0  0
   71.6747   23.1666   75.8687 O   0  0  0  0  0  0
   73.9554   22.8801   75.7606 N   0  0  0  0  0  0
   73.8971   21.6314   76.4174 C   0  0  0  0  0  0
   73.3982   20.4925   75.7747 C   0  0  0  0  0  0
   73.4083   19.2642   76.4368 C   0  0  0  0  0  0
   73.9493   19.1590   77.7282 C   0  0  0  0  0  0
   74.1055   17.9869   78.4479 O   0  0  0  0  0  0
   73.9750   16.6862   77.8698 C   0  0  0  0  0  0
   74.9247   16.3973   76.6989 C   0  0  0  0  0  0
   76.4126   16.6166   76.9623 C   0  0  0  0  0  0
   76.9343   15.6076   77.8146 O   0  0  0  0  0  0
   78.3420   15.6819   78.0395 C   0  0  0  0  0  0
   79.1576   15.3463   76.7857 C   0  0  0  0  0  0
   79.5572   14.0226   76.5722 C   0  0  0  0  0  0
   80.3583   13.6852   75.4813 C   0  0  0  0  0  0
   80.7558   14.6728   74.5858 C   0  0  0  0  0  0
   80.3504   15.9929   74.7753 C   0  0  0  0  0  0
   79.5540   16.3465   75.8800 C   0  0  0  0  0  0
   79.1655   17.6461   76.1446 O   0  0  0  0  0  0
   79.0865   18.5767   75.0718 C   0  0  0  0  0  0
   74.3783   20.3146   78.3780 C   0  0  0  0  0  0
   74.3587   21.5442   77.7288 C   0  0  0  0  0  0
   77.9840   22.0376   71.7453 C   0  0  0  0  0  0
   75.8715   23.4313   76.3093 H   0  0  0  0  0  0
   80.2864   25.1938   71.0837 H   0  0  0  0  0  0
   78.5729   24.7761   71.0805 H   0  0  0  0  0  0
   79.6222   24.2959   72.4394 H   0  0  0  0  0  0
   80.6958   20.8612   70.0783 H   0  0  0  0  0  0
   79.6258   18.7095   70.6462 H   0  0  0  0  0  0
   77.5264   18.6751   71.9102 H   0  0  0  0  0  0
   76.0374   19.9662   73.5499 H   0  0  0  0  0  0
   75.2898   20.4254   72.0501 H   0  0  0  0  0  0
   77.1948   22.7536   74.3921 H   0  0  0  0  0  0
   76.3590   21.4565   75.2026 H   0  0  0  0  0  0
   75.1427   24.7738   73.6918 H   0  0  0  0  0  0
   76.3534   25.2228   74.9089 H   0  0  0  0  0  0
   74.4314   26.6089   75.1867 H   0  0  0  0  0  0
   72.7473   25.2125   74.1369 H   0  0  0  0  0  0
   72.2695   25.7171   75.7773 H   0  0  0  0  0  0
   73.0167   20.5594   74.7645 H   0  0  0  0  0  0
   73.0016   18.4045   75.9302 H   0  0  0  0  0  0
   72.9462   16.5070   77.5622 H   0  0  0  0  0  0
   74.1676   15.9647   78.6663 H   0  0  0  0  0  0
   74.6624   17.0512   75.8816 H   0  0  0  0  0  0
   74.7668   15.3843   76.3302 H   0  0  0  0  0  0
   76.5933   17.6104   77.3778 H   0  0  0  0  0  0
   76.9023   16.5740   75.9895 H   0  0  0  0  0  0
   78.5801   14.9537   78.8168 H   0  0  0  0  0  0
   78.6283   16.6473   78.4592 H   0  0  0  0  0  0
   79.2694   13.2540   77.2726 H   0  0  0  0  0  0
   80.6713   12.6614   75.3339 H   0  0  0  0  0  0
   81.3847   14.4178   73.7446 H   0  0  0  0  0  0
   80.6957   16.7312   74.0702 H   0  0  0  0  0  0
   78.7548   19.5401   75.4598 H   0  0  0  0  0  0
   80.0390   18.7346   74.5719 H   0  0  0  0  0  0
   78.3579   18.2567   74.3279 H   0  0  0  0  0  0
   74.7705   20.2534   79.3816 H   0  0  0  0  0  0
   74.7243   22.4226   78.2394 H   0  0  0  0  0  0
   77.5060   22.9617   72.0309 H   0  0  0  0  0  0
   74.5732   25.6532   76.4782 H   0  0  0  0  0  0
  1  2  1  0  0  0
  1 40  1  0  0  0
  1 41  1  0  0  0
  1 42  1  0  0  0
  2  3  1  0  0  0
  3 38  1  0  0  0
  3  4  2  0  0  0
  4  5  1  0  0  0
  4 43  1  0  0  0
  5  6  2  0  0  0
  5 44  1  0  0  0
  6  7  1  0  0  0
  6 45  1  0  0  0
  7  8  1  0  0  0
  7 38  2  0  0  0
  8  9  1  0  0  0
  8 46  1  0  0  0
  8 47  1  0  0  0
  9 10  1  0  0  0
 10 11  1  0  0  0
 10 48  1  0  0  0
 10 49  1  0  0  0
 11 39  1  0  0  0
 11 17  1  0  0  0
 11 12  1  0  0  0
 12 13  1  0  0  0
 12 50  1  0  0  0
 12 51  1  0  0  0
 13 14  1  0  0  0
 13 52  1  0  0  0
 13 75  1  0  0  0
 14 15  1  0  0  0
 14 53  1  0  0  0
 14 54  1  0  0  0
 15 16  2  0  0  0
 15 17  1  0  0  0
 17 18  1  0  0  0
 18 37  1  0  0  0
 18 19  2  0  0  0
 19 20  1  0  0  0
 19 55  1  0  0  0
 20 21  2  0  0  0
 20 56  1  0  0  0
 21 22  1  0  0  0
 21 36  1  0  0  0
 22 23  1  0  0  0
 23 24  1  0  0  0
 23 57  1  0  0  0
 23 58  1  0  0  0
 24 25  1  0  0  0
 24 59  1  0  0  0
 24 60  1  0  0  0
 25 26  1  0  0  0
 25 61  1  0  0  0
 25 62  1  0  0  0
 26 27  1  0  0  0
 27 28  1  0  0  0
 27 63  1  0  0  0
 27 64  1  0  0  0
 28 33  1  0  0  0
 28 29  2  0  0  0
 29 30  1  0  0  0
 29 65  1  0  0  0
 30 31  2  0  0  0
 30 66  1  0  0  0
 31 32  1  0  0  0
 31 67  1  0  0  0
 32 33  2  0  0  0
 32 68  1  0  0  0
 33 34  1  0  0  0
 34 35  1  0  0  0
 35 69  1  0  0  0
 35 70  1  0  0  0
 35 71  1  0  0  0
 36 37  2  0  0  0
 36 72  1  0  0  0
 37 73  1  0  0  0
 38 74  1  0  0  0
M  CHG  1  13   1
M  END
> <i_epik_Tot_Q>
1

> <i_epik_Tot_abs_Q>
1

> <i_i_glide_confnum>
404

> <i_i_glide_lignum>
14

> <i_i_glide_posenum>
3

> <i_i_glide_rotatable_bonds>
14

> <i_lp_mmshare_version>
51139

> <i_m_source_file_index>
7

> <i_f3d_flags>
0

> <b_lp_Chiralities_Consistent>
1

> <r_epik_Charging_Adjusted_Penalty>
1.62731

> <r_epik_Ionization_Penalty>
0.7981

> <r_epik_Ionization_Penalty_Charging>
0.7981

> <r_epik_Ionization_Penalty_Neutral>
0

> <r_epik_State_Penalty>
0.8292

> <r_i_docking_score>
-8.58593

> <r_i_glide_ecoul>
-7.02919

> <r_i_glide_eff_state_penalty>
0.829177

> <r_i_glide_einternal>
6.39338

> <r_i_glide_emodel>
-118.212

> <r_i_glide_energy>
-67.0934

> <r_i_glide_erotb>
0.906695

> <r_i_glide_esite>
-0.195192

> <r_i_glide_evdw>
-60.0642

> <r_i_glide_gscore>
-9.4151

> <r_i_glide_hbond>
-0.369679

> <r_i_glide_ligand_efficiency>
-0.225945

> <r_i_glide_ligand_efficiency_ln>
-1.85138

> <r_i_glide_ligand_efficiency_sa>
-0.759623

> <r_i_glide_lipo>
-5.15961

> <r_i_glide_metal>
-0

> <r_i_glide_rewards>
-0.539729

> <r_lp_Energy>
64.5259

> <r_lp_tautomer_probability>
1

> <s_epik_cmdline>
J2VwaWtfcHl0aG9uJywgJy1waHQnLCAnMi4wJywgJy1waCcsICc3LjQnLCAnLXRuJywgJzgnLCAnLW1hJywgJzIwMCcsICctaW1hZScsICc8aW5maWxlLm1hZT4nLCAnLW9tYWUnLCAnPG91dGZpbGUubWFlPic=

> <s_epik_input>
W0NIM11PYzFbY0hdW2NIXVtjSF1jKFtjSF0xKVtDSDJdT1tDSDJdW0NASF0yW0NIMl1bTkhdW0NIMl1DKD1PKU4yYzNbY0hdW2NIXWMoW2NIXVtjSF0zKU9bQ0gyXVtDSDJdW0NIMl1PW0NIMl1jNFtjSF1bY0hdW2NIXVtjSF1jNE9bQ0gzXQ==

> <s_i_glide_gridfile>
Sries12988-001-gridgen

> <s_lp_Force_Field>
OPLS3e

> <s_lp_Variant>
lig6-2

> <s_m_source_file>
/home/user-home/yujie/0_PBCNetv2/data/0_0_high_sim/0_noncov/Sries12206/ligprep_input.csv

$$$$
