MCL1_36
                    3D
 Schrodinger Suite 2020-3.
 44 46  0  0  1  0            999 V2000
   41.0794   -8.0762   29.4270 C   0  0  0  0  0  0
   41.4194   -9.0420   28.2827 C   0  0  0  0  0  0
   40.1921   -9.6036   27.5632 C   0  0  0  0  0  0
   39.9515   -9.2369   26.2303 C   0  0  0  0  0  0
   38.8301   -9.7050   25.5355 C   0  0  0  0  0  0
   38.6790   -9.3032   24.2245 O   0  0  0  0  0  0
   37.8364  -10.0660   23.3619 C   0  0  0  0  0  0
   38.0315   -9.6034   21.9058 C   0  0  0  0  0  0
   37.6000   -8.1524   21.6234 C   0  0  0  0  0  0
   36.1189   -7.9280   21.8754 C   0  0  0  0  0  0
   35.0340   -8.2032   21.0347 C   0  0  0  0  0  0
   34.8986   -8.8202   19.6985 C   0  0  0  0  0  0
   35.8787   -9.4594   19.2490 O   0  0  0  0  0  0
   33.8000   -8.7039   19.1101 O   0  5  0  0  0  0
   33.8748   -7.8193   21.6697 N   0  0  0  0  0  0
   34.1352   -7.3755   22.9442 C   0  0  0  0  0  0
   33.2780   -6.9451   23.9642 C   0  0  0  0  0  0
   33.8656   -6.5986   25.1811 C   0  0  0  0  0  0
   35.2436   -6.6591   25.3755 C   0  0  0  0  0  0
   36.0960   -7.0595   24.3481 C   0  0  0  0  0  0
   35.5500   -7.4392   23.1090 C   0  0  0  0  0  0
   37.9201  -10.5381   26.2004 C   0  0  0  0  0  0
   38.1468  -10.9131   27.5220 C   0  0  0  0  0  0
   39.2760  -10.4630   28.2039 C   0  0  0  0  0  0
   39.4790  -11.0024   29.8329 Cl  0  0  0  0  0  0
   32.9782   -7.9228   21.2134 H   0  0  0  0  0  0
   41.9730   -7.8594   30.0108 H   0  0  0  0  0  0
   40.6705   -7.1345   29.0575 H   0  0  0  0  0  0
   40.3590   -8.5063   30.1213 H   0  0  0  0  0  0
   42.0059   -9.8600   28.6885 H   0  0  0  0  0  0
   42.0851   -8.5452   27.5738 H   0  0  0  0  0  0
   40.6428   -8.5812   25.7174 H   0  0  0  0  0  0
   36.7924   -9.9645   23.6599 H   0  0  0  0  0  0
   38.0908  -11.1244   23.4344 H   0  0  0  0  0  0
   37.4734  -10.2663   21.2458 H   0  0  0  0  0  0
   39.0786   -9.7252   21.6298 H   0  0  0  0  0  0
   37.8459   -7.9006   20.5909 H   0  0  0  0  0  0
   38.2019   -7.4754   22.2315 H   0  0  0  0  0  0
   32.2067   -6.8973   23.8313 H   0  0  0  0  0  0
   33.2380   -6.2729   25.9966 H   0  0  0  0  0  0
   35.6576   -6.3785   26.3322 H   0  0  0  0  0  0
   37.1633   -7.0973   24.5143 H   0  0  0  0  0  0
   37.0327  -10.9055   25.7099 H   0  0  0  0  0  0
   37.4400  -11.5640   28.0163 H   0  0  0  0  0  0
  1  2  1  0  0  0
  1 27  1  0  0  0
  1 28  1  0  0  0
  1 29  1  0  0  0
  2  3  1  0  0  0
  2 30  1  0  0  0
  2 31  1  0  0  0
  3 24  1  0  0  0
  3  4  2  0  0  0
  4  5  1  0  0  0
  4 32  1  0  0  0
  5  6  1  0  0  0
  5 22  2  0  0  0
  6  7  1  0  0  0
  7  8  1  0  0  0
  7 33  1  0  0  0
  7 34  1  0  0  0
  8  9  1  0  0  0
  8 35  1  0  0  0
  8 36  1  0  0  0
  9 10  1  0  0  0
  9 37  1  0  0  0
  9 38  1  0  0  0
 10 21  1  0  0  0
 10 11  2  0  0  0
 11 12  1  0  0  0
 11 15  1  0  0  0
 12 13  2  0  0  0
 12 14  1  0  0  0
 15 26  1  0  0  0
 15 16  1  0  0  0
 16 21  1  0  0  0
 16 17  2  0  0  0
 17 18  1  0  0  0
 17 39  1  0  0  0
 18 19  2  0  0  0
 18 40  1  0  0  0
 19 20  1  0  0  0
 19 41  1  0  0  0
 20 21  2  0  0  0
 20 42  1  0  0  0
 22 23  1  0  0  0
 22 43  1  0  0  0
 23 24  2  0  0  0
 23 44  1  0  0  0
 24 25  1  0  0  0
M  CHG  1  14  -1
M  END
> <s_m_source_file>
/home/user-home/yujie/0_PBCNetv2/data/FEP/MCL1/inp_ligprep.csv

> <i_m_source_file_index>
19

> <i_lp_mmshare_version>
51139

> <i_f3d_flags>
0

> <s_epik_input>
W0NIM11bQ0gyXWMxW2NIXWMoW2NIXVtjSF1jMUNsKU9bQ0gyXVtDSDJdW0NIMl1jKGMoW25IXTIpQyg9TylbT0hdKWMoYzIzKVtjSF1bY0hdW2NIXVtjSF0z

> <s_epik_cmdline>
J2VwaWtfcHl0aG9uJywgJy1waHQnLCAnMi4wJywgJy1waCcsICc3LjQnLCAnLXRuJywgJzgnLCAnLW1hJywgJzIwMCcsICctaW1hZScsICc8aW5maWxlLm1hZT4nLCAnLW9tYWUnLCAnPG91dGZpbGUubWFlPic=

> <r_lp_tautomer_probability>
1

> <r_epik_Ionization_Penalty>
  0.0005

> <r_epik_Ionization_Penalty_Charging>
  0.0005

> <r_epik_Ionization_Penalty_Neutral>
  0.0000

> <r_epik_State_Penalty>
  0.0003

> <r_epik_Charging_Adjusted_Penalty>
0.000842282

> <i_epik_Tot_Q>
-1

> <i_epik_Tot_abs_Q>
1

> <s_lp_Force_Field>
OPLS3e

> <r_lp_Energy>
31.3684

> <b_lp_Chiralities_Consistent>
1

> <s_lp_Variant>
MCL1_36-1

> <s_i_glide_gridfile>
MCL1-001-gridgen

> <i_i_glide_lignum>
20

> <i_i_glide_rotatable_bonds>
7

> <r_i_docking_score>
-9.7889685556767

> <r_i_glide_ligand_efficiency>
-0.391558742227068

> <r_i_glide_ligand_efficiency_sa>
-1.14492470659581

> <r_i_glide_ligand_efficiency_ln>
-2.32027889941096

> <r_i_glide_gscore>
-9.7892920936767

> <r_i_glide_lipo>
-5.66221339856805

> <r_i_glide_hbond>
-0.2

> <r_i_glide_metal>
-0

> <r_i_glide_rewards>
-1.84448902149304

> <r_i_glide_evdw>
-42.5744018554688

> <r_i_glide_ecoul>
-4.56820011138916

> <r_i_glide_erotb>
0.751512930677006

> <r_i_glide_esite>
-0.020152494810802

> <r_i_glide_emodel>
-80.2580120487289

> <r_i_glide_energy>
-47.1426019668579

> <r_i_glide_einternal>
7.8185510635376

> <i_i_glide_confnum>
143

> <i_i_glide_posenum>
16

> <r_i_glide_eff_state_penalty>
0.000323538

$$$$
