MCL1_23
                    3D
 Schrodinger Suite 2020-3.
 43 46  0  0  1  0            999 V2000
   33.7316   -9.2441   18.7523 O   0  0  0  0  0  0
   34.7338   -9.0498   19.4768 C   0  0  0  0  0  0
   35.8789   -9.4595   19.1841 O   0  5  0  0  0  0
   34.5646   -8.3181   20.7556 C   0  0  0  0  0  0
   32.9133   -7.9869   21.2631 S   0  0  0  0  0  0
   33.4669   -7.3045   22.7705 C   0  0  0  0  0  0
   32.6584   -6.8341   23.8165 C   0  0  0  0  0  0
   33.2797   -6.3294   24.9520 C   0  0  0  0  0  0
   34.6640   -6.2615   25.0381 C   0  0  0  0  0  0
   35.4674   -6.6884   23.9841 C   0  0  0  0  0  0
   34.8906   -7.2664   22.8342 C   0  0  0  0  0  0
   35.5189   -7.8572   21.6808 C   0  0  0  0  0  0
   37.0403   -7.9551   21.5413 C   0  0  0  0  0  0
   37.6819   -9.1444   22.2787 C   0  0  0  0  0  0
   37.8332   -8.9242   23.7944 C   0  0  0  0  0  0
   38.6785   -9.9342   24.3087 O   0  0  0  0  0  0
   39.0587   -9.7867   25.6206 C   0  0  0  0  0  0
   40.2598   -9.1412   25.9199 C   0  0  0  0  0  0
   40.7807   -9.1646   27.2091 C   0  0  0  0  0  0
   40.1040   -9.8257   28.2328 C   0  0  0  0  0  0
   38.8411  -10.4192   27.9864 C   0  0  0  0  0  0
   38.1046  -11.0512   29.0180 C   0  0  0  0  0  0
   36.8312  -11.5502   28.7617 C   0  0  0  0  0  0
   36.2792  -11.4673   27.4898 C   0  0  0  0  0  0
   37.0053  -10.9243   26.4388 C   0  0  0  0  0  0
   38.2931  -10.3733   26.6650 C   0  0  0  0  0  0
   31.5800   -6.8709   23.7496 H   0  0  0  0  0  0
   32.6786   -5.9749   25.7780 H   0  0  0  0  0  0
   35.1239   -5.8597   25.9301 H   0  0  0  0  0  0
   36.5358   -6.5881   24.0761 H   0  0  0  0  0  0
   37.3313   -7.9889   20.4919 H   0  0  0  0  0  0
   37.5309   -7.0597   21.8991 H   0  0  0  0  0  0
   37.1306  -10.0632   22.0754 H   0  0  0  0  0  0
   38.6767   -9.3009   21.8580 H   0  0  0  0  0  0
   38.2785   -7.9473   23.9912 H   0  0  0  0  0  0
   36.8606   -8.9592   24.2853 H   0  0  0  0  0  0
   40.8211   -8.6602   25.1323 H   0  0  0  0  0  0
   41.7284   -8.6871   27.4099 H   0  0  0  0  0  0
   40.5223   -9.8538   29.2291 H   0  0  0  0  0  0
   38.5223  -11.1094   30.0133 H   0  0  0  0  0  0
   36.2588  -12.0001   29.5575 H   0  0  0  0  0  0
   35.2897  -11.8597   27.3126 H   0  0  0  0  0  0
   36.5767  -10.9062   25.4478 H   0  0  0  0  0  0
  1  2  2  0  0  0
  2  3  1  0  0  0
  2  4  1  0  0  0
  4 12  2  0  0  0
  4  5  1  0  0  0
  5  6  1  0  0  0
  6 11  2  0  0  0
  6  7  1  0  0  0
  7  8  2  0  0  0
  7 27  1  0  0  0
  8  9  1  0  0  0
  8 28  1  0  0  0
  9 10  2  0  0  0
  9 29  1  0  0  0
 10 11  1  0  0  0
 10 30  1  0  0  0
 11 12  1  0  0  0
 12 13  1  0  0  0
 13 14  1  0  0  0
 13 31  1  0  0  0
 13 32  1  0  0  0
 14 15  1  0  0  0
 14 33  1  0  0  0
 14 34  1  0  0  0
 15 16  1  0  0  0
 15 35  1  0  0  0
 15 36  1  0  0  0
 16 17  1  0  0  0
 17 26  1  0  0  0
 17 18  2  0  0  0
 18 19  1  0  0  0
 18 37  1  0  0  0
 19 20  2  0  0  0
 19 38  1  0  0  0
 20 21  1  0  0  0
 20 39  1  0  0  0
 21 26  2  0  0  0
 21 22  1  0  0  0
 22 23  2  0  0  0
 22 40  1  0  0  0
 23 24  1  0  0  0
 23 41  1  0  0  0
 24 25  2  0  0  0
 24 42  1  0  0  0
 25 26  1  0  0  0
 25 43  1  0  0  0
M  CHG  1   3  -1
M  END
> <s_m_source_file>
/home/user-home/yujie/0_PBCNetv2/data/FEP/MCL1/inp_ligprep.csv

> <i_m_source_file_index>
3

> <i_lp_mmshare_version>
51139

> <i_f3d_flags>
0

> <s_epik_input>
W2NIXTFbY0hdW2NIXVtjSF1jKGMxMiljKGMoczIpQyg9TylbT0hdKVtDSDJdW0NIMl1bQ0gyXU9jKFtjSF1bY0hdW2NIXTMpYyhjMzQpW2NIXVtjSF1bY0hdW2NIXTQ=

> <s_epik_cmdline>
J2VwaWtfcHl0aG9uJywgJy1waHQnLCAnMi4wJywgJy1waCcsICc3LjQnLCAnLXRuJywgJzgnLCAnLW1hJywgJzIwMCcsICctaW1hZScsICc8aW5maWxlLm1hZT4nLCAnLW9tYWUnLCAnPG91dGZpbGUubWFlPic=

> <r_lp_tautomer_probability>
1

> <r_epik_Ionization_Penalty>
  0.0001

> <r_epik_Ionization_Penalty_Charging>
  0.0001

> <r_epik_Ionization_Penalty_Neutral>
  0.0000

> <r_epik_State_Penalty>
 -0.0000

> <r_epik_Charging_Adjusted_Penalty>
0.000132564

> <i_epik_Tot_Q>
-1

> <i_epik_Tot_abs_Q>
1

> <s_lp_Force_Field>
OPLS3e

> <r_lp_Energy>
42.9218

> <b_lp_Chiralities_Consistent>
1

> <s_lp_Variant>
MCL1_23-1

> <s_i_glide_gridfile>
MCL1-001-gridgen

> <i_i_glide_lignum>
4

> <i_i_glide_rotatable_bonds>
6

> <r_i_docking_score>
-9.92535894656401

> <r_i_glide_ligand_efficiency>
-0.381744574867847

> <r_i_glide_ligand_efficiency_sa>
-1.13091680095363

> <r_i_glide_ligand_efficiency_ln>
-2.33093798084151

> <r_i_glide_gscore>
-9.92535894656401

> <r_i_glide_lipo>
-5.77101893910067

> <r_i_glide_hbond>
-0.2

> <r_i_glide_metal>
-0

> <r_i_glide_rewards>
-1.84476422727273

> <r_i_glide_evdw>
-40.6077003479004

> <r_i_glide_ecoul>
-4.17296648025513

> <r_i_glide_erotb>
0.587606020905209

> <r_i_glide_esite>
-0.0408518116625396

> <r_i_glide_emodel>
-79.2958807549445

> <r_i_glide_energy>
-44.7806668281555

> <r_i_glide_einternal>
8.796311378479

> <i_i_glide_confnum>
21

> <i_i_glide_posenum>
88

> <r_i_glide_eff_state_penalty>
-0

$$$$
