MCL1_54
                    3D
 Schrodinger Suite 2020-3.
 44 47  0  0  1  0            999 V2000
   35.9241   -9.4597   19.0333 O   0  0  0  0  0  0
   35.0750   -8.6391   19.4333 C   0  0  0  0  0  0
   34.0625   -8.2912   18.7830 O   0  5  0  0  0  0
   35.2566   -8.0927   20.7815 C   0  0  0  0  0  0
   34.1221   -7.6228   21.3901 N   0  0  0  0  0  0
   34.3885   -7.2790   22.6864 C   0  0  0  0  0  0
   33.5364   -6.8583   23.6991 C   0  0  0  0  0  0
   34.1141   -6.6509   24.9434 C   0  0  0  0  0  0
   33.0790   -6.2597   26.2333 Cl  0  0  0  0  0  0
   35.4798   -6.7782   25.1725 C   0  0  0  0  0  0
   36.3342   -7.1673   24.1460 C   0  0  0  0  0  0
   35.7878   -7.4597   22.8846 C   0  0  0  0  0  0
   36.3399   -7.9634   21.6595 C   0  0  0  0  0  0
   37.8005   -8.3253   21.4789 C   0  0  0  0  0  0
   38.0884   -9.8018   21.8040 C   0  0  0  0  0  0
   37.6983  -10.2972   23.2162 C   0  0  0  0  0  0
   38.5318   -9.7878   24.2527 O   0  0  0  0  0  0
   38.2802  -10.1749   25.5640 C   0  0  0  0  0  0
   37.1130  -10.8374   25.9792 C   0  0  0  0  0  0
   36.9289  -11.2354   27.2983 C   0  0  0  0  0  0
   37.8996  -10.9755   28.2567 C   0  0  0  0  0  0
   39.0681  -10.2597   27.9090 C   0  0  0  0  0  0
   40.0320   -9.9006   28.8859 C   0  0  0  0  0  0
   41.1480   -9.1467   28.5336 C   0  0  0  0  0  0
   41.3371   -8.7412   27.2184 C   0  0  0  0  0  0
   40.4138   -9.0810   26.2333 C   0  0  0  0  0  0
   39.2601   -9.8567   26.5490 C   0  0  0  0  0  0
   33.2349   -7.6211   20.9052 H   0  0  0  0  0  0
   32.4729   -6.7462   23.5476 H   0  0  0  0  0  0
   35.8789   -6.5918   26.1600 H   0  0  0  0  0  0
   37.3915   -7.2875   24.3325 H   0  0  0  0  0  0
   38.1226   -8.1097   20.4586 H   0  0  0  0  0  0
   38.4220   -7.6976   22.1163 H   0  0  0  0  0  0
   37.5480  -10.3999   21.0719 H   0  0  0  0  0  0
   39.1447   -9.9915   21.6305 H   0  0  0  0  0  0
   36.6790  -10.0083   23.4248 H   0  0  0  0  0  0
   37.7327  -11.3877   23.2386 H   0  0  0  0  0  0
   36.3202  -11.0597   25.2869 H   0  0  0  0  0  0
   36.0229  -11.7530   27.5787 H   0  0  0  0  0  0
   37.7452  -11.2827   29.2813 H   0  0  0  0  0  0
   39.8860  -10.2013   29.9136 H   0  0  0  0  0  0
   41.8704   -8.8703   29.2880 H   0  0  0  0  0  0
   42.2026   -8.1486   26.9584 H   0  0  0  0  0  0
   40.5706   -8.7386   25.2204 H   0  0  0  0  0  0
  1  2  2  0  0  0
  2  3  1  0  0  0
  2  4  1  0  0  0
  4 13  2  0  0  0
  4  5  1  0  0  0
  5 28  1  0  0  0
  5  6  1  0  0  0
  6 12  2  0  0  0
  6  7  1  0  0  0
  7  8  2  0  0  0
  7 29  1  0  0  0
  8  9  1  0  0  0
  8 10  1  0  0  0
 10 11  2  0  0  0
 10 30  1  0  0  0
 11 12  1  0  0  0
 11 31  1  0  0  0
 12 13  1  0  0  0
 13 14  1  0  0  0
 14 15  1  0  0  0
 14 32  1  0  0  0
 14 33  1  0  0  0
 15 16  1  0  0  0
 15 34  1  0  0  0
 15 35  1  0  0  0
 16 17  1  0  0  0
 16 36  1  0  0  0
 16 37  1  0  0  0
 17 18  1  0  0  0
 18 27  1  0  0  0
 18 19  2  0  0  0
 19 20  1  0  0  0
 19 38  1  0  0  0
 20 21  2  0  0  0
 20 39  1  0  0  0
 21 22  1  0  0  0
 21 40  1  0  0  0
 22 27  2  0  0  0
 22 23  1  0  0  0
 23 24  2  0  0  0
 23 41  1  0  0  0
 24 25  1  0  0  0
 24 42  1  0  0  0
 25 26  2  0  0  0
 25 43  1  0  0  0
 26 27  1  0  0  0
 26 44  1  0  0  0
M  CHG  1   3  -1
M  END
> <s_m_source_file>
/home/user-home/yujie/0_PBCNetv2/data/FEP/MCL1/inp_ligprep.csv

> <i_m_source_file_index>
31

> <i_lp_mmshare_version>
51139

> <i_f3d_flags>
0

> <s_epik_input>
W2NIXTFjKENsKVtjSF1bY0hdYyhjMTIpYyhjKFtuSF0yKUMoPU8pW09IXSlbQ0gyXVtDSDJdW0NIMl1PYyhbY0hdW2NIXVtjSF0zKWMoYzM0KVtjSF1bY0hdW2NIXVtjSF00

> <s_epik_cmdline>
J2VwaWtfcHl0aG9uJywgJy1waHQnLCAnMi4wJywgJy1waCcsICc3LjQnLCAnLXRuJywgJzgnLCAnLW1hJywgJzIwMCcsICctaW1hZScsICc8aW5maWxlLm1hZT4nLCAnLW9tYWUnLCAnPG91dGZpbGUubWFlPic=

> <r_lp_tautomer_probability>
1

> <r_epik_Ionization_Penalty>
  0.0003

> <r_epik_Ionization_Penalty_Charging>
  0.0003

> <r_epik_Ionization_Penalty_Neutral>
  0.0000

> <r_epik_State_Penalty>
 -0.0000

> <r_epik_Charging_Adjusted_Penalty>
0.000295453

> <i_epik_Tot_Q>
-1

> <i_epik_Tot_abs_Q>
1

> <s_lp_Force_Field>
OPLS3e

> <r_lp_Energy>
40.181

> <b_lp_Chiralities_Consistent>
1

> <s_lp_Variant>
MCL1_54-1

> <s_i_glide_gridfile>
MCL1-001-gridgen

> <i_i_glide_lignum>
32

> <i_i_glide_rotatable_bonds>
6

> <r_i_docking_score>
-10.6585363822643

> <r_i_glide_ligand_efficiency>
-0.394760606750528

> <r_i_glide_ligand_efficiency_sa>
-1.18428181895052

> <r_i_glide_ligand_efficiency_ln>
-2.48113155008562

> <r_i_glide_gscore>
-10.6585363822643

> <r_i_glide_lipo>
-6.24877333387488

> <r_i_glide_hbond>
-0.161181579538655

> <r_i_glide_metal>
-0

> <r_i_glide_rewards>
-1.72617286363636

> <r_i_glide_evdw>
-43.9339065551758

> <r_i_glide_ecoul>
-5.53188562393188

> <r_i_glide_erotb>
0.540262106106263

> <r_i_glide_esite>
-0.0361925399720604

> <r_i_glide_emodel>
-86.2380297726097

> <r_i_glide_energy>
-49.4657921791077

> <r_i_glide_einternal>
3.35665988922119

> <i_i_glide_confnum>
10

> <i_i_glide_posenum>
327

> <r_i_glide_eff_state_penalty>
-0

$$$$
