MCL1_46
                    3D
 Schrodinger Suite 2020-3.
 45 48  0  0  1  0            999 V2000
   35.8792   -9.4595   19.2408 O   0  0  0  0  0  0
   34.8922   -8.8351   19.6942 C   0  0  0  0  0  0
   33.7854   -8.7407   19.1146 O   0  5  0  0  0  0
   35.0260   -8.2055   21.0241 C   0  0  0  0  0  0
   33.8741   -7.7548   21.6336 N   0  0  0  0  0  0
   34.1366   -7.3101   22.9080 C   0  0  0  0  0  0
   33.2862   -6.8258   23.9112 C   0  0  0  0  0  0
   33.8722   -6.5116   25.1397 C   0  0  0  0  0  0
   35.2406   -6.6505   25.3578 C   0  0  0  0  0  0
   36.0880   -7.0914   24.3437 C   0  0  0  0  0  0
   35.5447   -7.4456   23.0960 C   0  0  0  0  0  0
   36.1090   -7.9662   21.8751 C   0  0  0  0  0  0
   37.5801   -8.2536   21.6432 C   0  0  0  0  0  0
   37.9488   -9.7162   21.9547 C   0  0  0  0  0  0
   37.7689  -10.1319   23.4270 C   0  0  0  0  0  0
   38.6800   -9.3747   24.2169 O   0  0  0  0  0  0
   38.8701   -9.7059   25.5399 C   0  0  0  0  0  0
   37.9924  -10.5103   26.2822 C   0  0  0  0  0  0
   38.2582  -10.7932   27.6236 C   0  0  0  0  0  0
   39.3950  -10.2595   28.2327 C   0  0  0  0  0  0
   40.2791   -9.4601   27.4995 C   0  0  0  0  0  0
   40.0163   -9.1893   26.1543 C   0  0  0  0  0  0
   41.4621   -9.0525   28.3424 C   0  0  0  0  0  0
   41.0997   -9.5239   29.7550 C   0  0  0  0  0  0
   39.8676  -10.4263   29.6557 C   0  0  0  0  0  0
   32.9805   -7.8208   21.1659 H   0  0  0  0  0  0
   32.2227   -6.7207   23.7592 H   0  0  0  0  0  0
   33.2485   -6.1500   25.9460 H   0  0  0  0  0  0
   35.6522   -6.4001   26.3254 H   0  0  0  0  0  0
   37.1487   -7.1876   24.5280 H   0  0  0  0  0  0
   37.8499   -8.0284   20.6110 H   0  0  0  0  0  0
   38.2006   -7.5901   22.2485 H   0  0  0  0  0  0
   37.3646  -10.3802   21.3198 H   0  0  0  0  0  0
   38.9914   -9.8599   21.6723 H   0  0  0  0  0  0
   36.7423   -9.9694   23.7573 H   0  0  0  0  0  0
   37.9805  -11.1984   23.5260 H   0  0  0  0  0  0
   37.0980  -10.9181   25.8362 H   0  0  0  0  0  0
   37.5761  -11.4198   28.1814 H   0  0  0  0  0  0
   40.6906   -8.5807   25.5736 H   0  0  0  0  0  0
   42.3691   -9.5580   28.0100 H   0  0  0  0  0  0
   41.6383   -7.9736   28.3262 H   0  0  0  0  0  0
   40.8763   -8.6611   30.3854 H   0  0  0  0  0  0
   41.9234  -10.0506   30.2327 H   0  0  0  0  0  0
   39.1179  -10.1182   30.3891 H   0  0  0  0  0  0
   40.1487  -11.4592   29.8513 H   0  0  0  0  0  0
  1  2  2  0  0  0
  2  3  1  0  0  0
  2  4  1  0  0  0
  4 12  2  0  0  0
  4  5  1  0  0  0
  5 26  1  0  0  0
  5  6  1  0  0  0
  6 11  2  0  0  0
  6  7  1  0  0  0
  7  8  2  0  0  0
  7 27  1  0  0  0
  8  9  1  0  0  0
  8 28  1  0  0  0
  9 10  2  0  0  0
  9 29  1  0  0  0
 10 11  1  0  0  0
 10 30  1  0  0  0
 11 12  1  0  0  0
 12 13  1  0  0  0
 13 14  1  0  0  0
 13 31  1  0  0  0
 13 32  1  0  0  0
 14 15  1  0  0  0
 14 33  1  0  0  0
 14 34  1  0  0  0
 15 16  1  0  0  0
 15 35  1  0  0  0
 15 36  1  0  0  0
 16 17  1  0  0  0
 17 22  1  0  0  0
 17 18  2  0  0  0
 18 19  1  0  0  0
 18 37  1  0  0  0
 19 20  2  0  0  0
 19 38  1  0  0  0
 20 25  1  0  0  0
 20 21  1  0  0  0
 21 22  2  0  0  0
 21 23  1  0  0  0
 22 39  1  0  0  0
 23 24  1  0  0  0
 23 40  1  0  0  0
 23 41  1  0  0  0
 24 25  1  0  0  0
 24 42  1  0  0  0
 24 43  1  0  0  0
 25 44  1  0  0  0
 25 45  1  0  0  0
M  CHG  1   3  -1
M  END
> <s_m_source_file>
/home/user-home/yujie/0_PBCNetv2/data/FEP/MCL1/inp_ligprep.csv

> <i_m_source_file_index>
13

> <i_lp_mmshare_version>
51139

> <i_f3d_flags>
0

> <s_epik_input>
W2NIXTFbY0hdW2NIXVtjSF1jKGMxMiljKGMoW25IXTIpQyg9TylbT0hdKVtDSDJdW0NIMl1bQ0gyXU9jKFtjSF1bY0hdMylbY0hdYyhjMzQpW0NIMl1bQ0gyXVtDSDJdNA==

> <s_epik_cmdline>
J2VwaWtfcHl0aG9uJywgJy1waHQnLCAnMi4wJywgJy1waCcsICc3LjQnLCAnLXRuJywgJzgnLCAnLW1hJywgJzIwMCcsICctaW1hZScsICc8aW5maWxlLm1hZT4nLCAnLW9tYWUnLCAnPG91dGZpbGUubWFlPic=

> <r_lp_tautomer_probability>
1

> <r_epik_Ionization_Penalty>
  0.0005

> <r_epik_Ionization_Penalty_Charging>
  0.0005

> <r_epik_Ionization_Penalty_Neutral>
  0.0000

> <r_epik_State_Penalty>
  0.0003

> <r_epik_Charging_Adjusted_Penalty>
0.000734887

> <i_epik_Tot_Q>
-1

> <i_epik_Tot_abs_Q>
1

> <s_lp_Force_Field>
OPLS3e

> <r_lp_Energy>
34.8201

> <b_lp_Chiralities_Consistent>
1

> <s_lp_Variant>
MCL1_46-1

> <s_i_glide_gridfile>
MCL1-001-gridgen

> <i_i_glide_lignum>
14

> <i_i_glide_rotatable_bonds>
6

> <r_i_docking_score>
-9.97903811862855

> <r_i_glide_ligand_efficiency>
-0.399161524745142

> <r_i_glide_ligand_efficiency_sa>
-1.16715537751458

> <r_i_glide_ligand_efficiency_ln>
-2.36533108175572

> <r_i_glide_gscore>
-9.97931885062855

> <r_i_glide_lipo>
-5.70061710656559

> <r_i_glide_hbond>
-0.2

> <r_i_glide_metal>
-0

> <r_i_glide_rewards>
-2.01296909247164

> <r_i_glide_evdw>
-40.5998764038086

> <r_i_glide_ecoul>
-4.59651947021484

> <r_i_glide_erotb>
0.674678162084637

> <r_i_glide_esite>
-0.0209390729533002

> <r_i_glide_emodel>
-80.3455649347435

> <r_i_glide_energy>
-45.1963958740234

> <r_i_glide_einternal>
2.22372770309448

> <i_i_glide_confnum>
10

> <i_i_glide_posenum>
218

> <r_i_glide_eff_state_penalty>
0.000280732

$$$$
