MCL1_42
                    3D
 Schrodinger Suite 2020-3.
 44 47  0  0  1  0            999 V2000
   35.8028   -9.4149   19.3093 O   0  0  0  0  0  0
   34.7089   -8.9330   19.6857 C   0  0  0  0  0  0
   33.6406   -9.0102   19.0348 O   0  5  0  0  0  0
   34.6640   -8.2571   21.0038 C   0  0  0  0  0  0
   33.4268   -7.9367   21.5128 N   0  0  0  0  0  0
   33.5382   -7.4037   22.7771 C   0  0  0  0  0  0
   32.5616   -6.9764   23.6840 C   0  0  0  0  0  0
   33.0091   -6.5102   24.9226 C   0  0  0  0  0  0
   34.3632   -6.4556   25.2390 C   0  0  0  0  0  0
   35.3342   -6.8617   24.3268 C   0  0  0  0  0  0
   34.9326   -7.3523   23.0706 C   0  0  0  0  0  0
   35.6427   -7.8602   21.9219 C   0  0  0  0  0  0
   37.1504   -7.9645   21.7875 C   0  0  0  0  0  0
   37.6604   -9.4091   21.9524 C   0  0  0  0  0  0
   38.3857   -9.6799   23.2731 C   0  0  0  0  0  0
   37.7024   -9.3785   24.4830 O   0  0  0  0  0  0
   38.4350   -9.5809   25.6443 C   0  0  0  0  0  0
   39.7520   -9.1241   25.8073 C   0  0  0  0  0  0
   40.4783   -9.3618   26.9663 C   0  0  0  0  0  0
   39.8999  -10.0533   28.0232 C   0  0  0  0  0  0
   38.5785  -10.5387   27.9153 C   0  0  0  0  0  0
   37.9838  -11.2732   28.9691 C   0  0  0  0  0  0
   36.6792  -11.7294   28.8458 C   0  0  0  0  0  0
   35.9401  -11.4596   27.7010 C   0  0  0  0  0  0
   36.4929  -10.7503   26.6435 C   0  0  0  0  0  0
   37.8265  -10.2819   26.7236 C   0  0  0  0  0  0
   32.5855   -8.1319   20.9883 H   0  0  0  0  0  0
   31.5072   -7.0128   23.4517 H   0  0  0  0  0  0
   32.2864   -6.1770   25.6555 H   0  0  0  0  0  0
   34.6660   -6.0857   26.2109 H   0  0  0  0  0  0
   36.3805   -6.8155   24.5893 H   0  0  0  0  0  0
   37.4443   -7.5967   20.8017 H   0  0  0  0  0  0
   37.6576   -7.3074   22.4973 H   0  0  0  0  0  0
   36.8902  -10.1517   21.7657 H   0  0  0  0  0  0
   38.3872   -9.5897   21.1614 H   0  0  0  0  0  0
   38.6799  -10.7264   23.3046 H   0  0  0  0  0  0
   39.2738   -9.0694   23.2243 H   0  0  0  0  0  0
   40.2465   -8.5560   25.0326 H   0  0  0  0  0  0
   41.4916   -8.9920   27.0449 H   0  0  0  0  0  0
   40.4634  -10.2250   28.9296 H   0  0  0  0  0  0
   38.5463  -11.4786   29.8693 H   0  0  0  0  0  0
   36.2407  -12.2955   29.6524 H   0  0  0  0  0  0
   34.9239  -11.8138   27.6239 H   0  0  0  0  0  0
   35.9087  -10.5630   25.7536 H   0  0  0  0  0  0
  1  2  2  0  0  0
  2  3  1  0  0  0
  2  4  1  0  0  0
  4 12  2  0  0  0
  4  5  1  0  0  0
  5 27  1  0  0  0
  5  6  1  0  0  0
  6 11  2  0  0  0
  6  7  1  0  0  0
  7  8  2  0  0  0
  7 28  1  0  0  0
  8  9  1  0  0  0
  8 29  1  0  0  0
  9 10  2  0  0  0
  9 30  1  0  0  0
 10 11  1  0  0  0
 10 31  1  0  0  0
 11 12  1  0  0  0
 12 13  1  0  0  0
 13 14  1  0  0  0
 13 32  1  0  0  0
 13 33  1  0  0  0
 14 15  1  0  0  0
 14 34  1  0  0  0
 14 35  1  0  0  0
 15 16  1  0  0  0
 15 36  1  0  0  0
 15 37  1  0  0  0
 16 17  1  0  0  0
 17 26  1  0  0  0
 17 18  2  0  0  0
 18 19  1  0  0  0
 18 38  1  0  0  0
 19 20  2  0  0  0
 19 39  1  0  0  0
 20 21  1  0  0  0
 20 40  1  0  0  0
 21 26  2  0  0  0
 21 22  1  0  0  0
 22 23  2  0  0  0
 22 41  1  0  0  0
 23 24  1  0  0  0
 23 42  1  0  0  0
 24 25  2  0  0  0
 24 43  1  0  0  0
 25 26  1  0  0  0
 25 44  1  0  0  0
M  CHG  1   3  -1
M  END
> <s_m_source_file>
/home/user-home/yujie/0_PBCNetv2/data/FEP/MCL1/inp_ligprep.csv

> <i_m_source_file_index>
22

> <i_lp_mmshare_version>
51139

> <i_f3d_flags>
0

> <s_epik_input>
W2NIXTFbY0hdW2NIXVtjSF1jKGMxMiljKGMoW25IXTIpQyg9TylbT0hdKVtDSDJdW0NIMl1bQ0gyXU9jKFtjSF1bY0hdW2NIXTMpYyhjMzQpW2NIXVtjSF1bY0hdW2NIXTQ=

> <s_epik_cmdline>
J2VwaWtfcHl0aG9uJywgJy1waHQnLCAnMi4wJywgJy1waCcsICc3LjQnLCAnLXRuJywgJzgnLCAnLW1hJywgJzIwMCcsICctaW1hZScsICc8aW5maWxlLm1hZT4nLCAnLW9tYWUnLCAnPG91dGZpbGUubWFlPic=

> <r_epik_Ionization_Penalty>
  0.0006

> <r_epik_Ionization_Penalty_Charging>
  0.0006

> <r_epik_Ionization_Penalty_Neutral>
  0.0000

> <r_epik_State_Penalty>
  0.0004

> <r_epik_Charging_Adjusted_Penalty>
0.000921483

> <i_epik_Tot_Q>
-1

> <i_epik_Tot_abs_Q>
1

> <s_lp_Force_Field>
OPLS3e

> <r_lp_Energy>
41.5553

> <b_lp_Chiralities_Consistent>
1

> <s_lp_Variant>
MCL1_42-1

> <s_i_glide_gridfile>
MCL1-001-gridgen

> <i_i_glide_lignum>
23

> <i_i_glide_rotatable_bonds>
6

> <r_i_docking_score>
-9.45124745043079

> <r_i_glide_ligand_efficiency>
-0.363509517324261

> <r_i_glide_ligand_efficiency_sa>
-1.07689551473224

> <r_i_glide_ligand_efficiency_ln>
-2.21959445166133

> <r_i_glide_gscore>
-9.45160269643079

> <r_i_glide_lipo>
-5.62029122489048

> <r_i_glide_hbond>
-0.2

> <r_i_glide_metal>
-0

> <r_i_glide_rewards>
-1.95996396707573

> <r_i_glide_evdw>
-36.3847808837891

> <r_i_glide_ecoul>
-3.13810157775879

> <r_i_glide_erotb>
0.640363311436548

> <r_i_glide_esite>
-0.0217565350478555

> <r_i_glide_emodel>
-72.4686933892932

> <r_i_glide_energy>
-39.5228824615479

> <r_i_glide_einternal>
6.11109447479248

> <i_i_glide_confnum>
6

> <i_i_glide_posenum>
398

> <r_i_glide_eff_state_penalty>
0.000355246

$$$$
