MCL1_45
                    3D
 Schrodinger Suite 2020-3.
 48 51  0  0  1  0            999 V2000
   34.2033   -8.7659   19.0972 O   0  0  0  0  0  0
   35.2433   -8.8544   19.7910 C   0  0  0  0  0  0
   36.2790   -9.4593   19.4330 O   0  5  0  0  0  0
   35.2414   -8.2364   21.1286 C   0  0  0  0  0  0
   34.0292   -7.8598   21.6584 N   0  0  0  0  0  0
   34.1795   -7.4178   22.9537 C   0  0  0  0  0  0
   33.2340   -7.0008   23.8980 C   0  0  0  0  0  0
   33.7156   -6.6269   25.1529 C   0  0  0  0  0  0
   35.0737   -6.6591   25.4566 C   0  0  0  0  0  0
   36.0137   -7.0573   24.5077 C   0  0  0  0  0  0
   35.5789   -7.4596   23.2322 C   0  0  0  0  0  0
   36.2477   -7.9462   22.0500 C   0  0  0  0  0  0
   37.7413   -8.1411   21.8863 C   0  0  0  0  0  0
   38.1905   -9.5962   22.1423 C   0  0  0  0  0  0
   38.0074  -10.0904   23.5923 C   0  0  0  0  0  0
   38.5026   -9.1110   24.5028 O   0  0  0  0  0  0
   39.0005   -9.5151   25.7217 C   0  0  0  0  0  0
   40.2792   -9.0566   26.0214 C   0  0  0  0  0  0
   40.8714   -9.3265   27.2459 C   0  0  0  0  0  0
   40.1716  -10.0700   28.1832 C   0  0  0  0  0  0
   38.8891  -10.5591   27.9202 C   0  0  0  0  0  0
   38.2726  -10.2599   26.6752 C   0  0  0  0  0  0
   36.8291  -10.7049   26.4053 C   0  0  0  0  0  0
   36.0540  -11.0115   27.6908 C   0  0  0  0  0  0
   36.8549  -11.9690   28.5696 C   0  0  0  0  0  0
   38.1653  -11.3219   29.0295 C   0  0  0  0  0  0
   33.1763   -7.9709   21.1268 H   0  0  0  0  0  0
   32.1765   -6.9763   23.6750 H   0  0  0  0  0  0
   33.0165   -6.3046   25.9108 H   0  0  0  0  0  0
   35.4057   -6.3574   26.4412 H   0  0  0  0  0  0
   37.0661   -7.0646   24.7609 H   0  0  0  0  0  0
   38.0451   -7.8520   20.8812 H   0  0  0  0  0  0
   38.2792   -7.4643   22.5473 H   0  0  0  0  0  0
   37.6448  -10.2612   21.4744 H   0  0  0  0  0  0
   39.2279   -9.6967   21.8333 H   0  0  0  0  0  0
   36.9457  -10.2542   23.7609 H   0  0  0  0  0  0
   38.5048  -11.0530   23.7237 H   0  0  0  0  0  0
   40.8097   -8.4657   25.2943 H   0  0  0  0  0  0
   41.8603   -8.9538   27.4649 H   0  0  0  0  0  0
   40.6306  -10.2599   29.1420 H   0  0  0  0  0  0
   36.2905   -9.9321   25.8575 H   0  0  0  0  0  0
   36.8417  -11.5949   25.7787 H   0  0  0  0  0  0
   35.0797  -11.4401   27.4525 H   0  0  0  0  0  0
   35.8767  -10.0851   28.2363 H   0  0  0  0  0  0
   37.0792  -12.8831   28.0190 H   0  0  0  0  0  0
   36.2616  -12.2600   29.4340 H   0  0  0  0  0  0
   38.8209  -12.0842   29.4545 H   0  0  0  0  0  0
   37.9463  -10.6197   29.8329 H   0  0  0  0  0  0
  1  2  2  0  0  0
  2  3  1  0  0  0
  2  4  1  0  0  0
  4 12  2  0  0  0
  4  5  1  0  0  0
  5 27  1  0  0  0
  5  6  1  0  0  0
  6 11  2  0  0  0
  6  7  1  0  0  0
  7  8  2  0  0  0
  7 28  1  0  0  0
  8  9  1  0  0  0
  8 29  1  0  0  0
  9 10  2  0  0  0
  9 30  1  0  0  0
 10 11  1  0  0  0
 10 31  1  0  0  0
 11 12  1  0  0  0
 12 13  1  0  0  0
 13 14  1  0  0  0
 13 32  1  0  0  0
 13 33  1  0  0  0
 14 15  1  0  0  0
 14 34  1  0  0  0
 14 35  1  0  0  0
 15 16  1  0  0  0
 15 36  1  0  0  0
 15 37  1  0  0  0
 16 17  1  0  0  0
 17 22  1  0  0  0
 17 18  2  0  0  0
 18 19  1  0  0  0
 18 38  1  0  0  0
 19 20  2  0  0  0
 19 39  1  0  0  0
 20 21  1  0  0  0
 20 40  1  0  0  0
 21 26  1  0  0  0
 21 22  2  0  0  0
 22 23  1  0  0  0
 23 24  1  0  0  0
 23 41  1  0  0  0
 23 42  1  0  0  0
 24 25  1  0  0  0
 24 43  1  0  0  0
 24 44  1  0  0  0
 25 26  1  0  0  0
 25 45  1  0  0  0
 25 46  1  0  0  0
 26 47  1  0  0  0
 26 48  1  0  0  0
M  CHG  1   3  -1
M  END
> <s_m_source_file>
/home/user-home/yujie/0_PBCNetv2/data/FEP/MCL1/inp_ligprep.csv

> <i_m_source_file_index>
34

> <i_lp_mmshare_version>
51139

> <i_f3d_flags>
0

> <s_epik_input>
W2NIXTFbY0hdW2NIXVtjSF1jKGMxMiljKGMoW25IXTIpQyg9TylbT0hdKVtDSDJdW0NIMl1bQ0gyXU9jKFtjSF1bY0hdW2NIXTMpYyhjMzQpW0NIMl1bQ0gyXVtDSDJdW0NIMl00

> <s_epik_cmdline>
J2VwaWtfcHl0aG9uJywgJy1waHQnLCAnMi4wJywgJy1waCcsICc3LjQnLCAnLXRuJywgJzgnLCAnLW1hJywgJzIwMCcsICctaW1hZScsICc8aW5maWxlLm1hZT4nLCAnLW9tYWUnLCAnPG91dGZpbGUubWFlPic=

> <r_lp_tautomer_probability>
1

> <r_epik_Ionization_Penalty>
  0.0005

> <r_epik_Ionization_Penalty_Charging>
  0.0005

> <r_epik_Ionization_Penalty_Neutral>
  0.0000

> <r_epik_State_Penalty>
  0.0003

> <r_epik_Charging_Adjusted_Penalty>
0.000736004

> <i_epik_Tot_Q>
-1

> <i_epik_Tot_abs_Q>
1

> <s_lp_Force_Field>
OPLS3e

> <r_lp_Energy>
37.752

> <b_lp_Chiralities_Consistent>
1

> <s_lp_Variant>
MCL1_45-1

> <s_i_glide_gridfile>
MCL1-001-gridgen

> <i_i_glide_lignum>
35

> <i_i_glide_rotatable_bonds>
6

> <r_i_docking_score>
-10.0881614695742

> <r_i_glide_ligand_efficiency>
-0.38800621036824

> <r_i_glide_ligand_efficiency_sa>
-1.1494668714852

> <r_i_glide_ligand_efficiency_ln>
-2.36917161917181

> <r_i_glide_gscore>
-10.0884426455742

> <r_i_glide_lipo>
-5.96601577598748

> <r_i_glide_hbond>
-0.2

> <r_i_glide_metal>
-0

> <r_i_glide_rewards>
-1.93353422727273

> <r_i_glide_evdw>
-43.1576919555664

> <r_i_glide_ecoul>
-2.94939541816711

> <r_i_glide_erotb>
0.627262239314276

> <r_i_glide_esite>
-0.0158609711249284

> <r_i_glide_emodel>
-78.8107429862011

> <r_i_glide_energy>
-46.1070873737335

> <r_i_glide_einternal>
8.5623722076416

> <i_i_glide_confnum>
11

> <i_i_glide_posenum>
179

> <r_i_glide_eff_state_penalty>
0.000281176

$$$$
