MCL1_63
                    3D
 Schrodinger Suite 2020-3.
 43 45  0  0  1  0            999 V2000
   41.5312   -8.8618   28.0026 C   0  0  0  0  0  0
   40.2791   -9.4597   27.3746 C   0  0  0  0  0  0
   39.9887   -9.1813   26.0347 C   0  0  0  0  0  0
   38.8532   -9.7054   25.4175 C   0  0  0  0  0  0
   38.6783   -9.4080   24.0807 O   0  0  0  0  0  0
   37.7130  -10.1338   23.3238 C   0  0  0  0  0  0
   37.8486   -9.7779   21.8294 C   0  0  0  0  0  0
   37.4656   -8.3399   21.4202 C   0  0  0  0  0  0
   35.9920   -8.0141   21.6425 C   0  0  0  0  0  0
   34.9139   -8.2162   20.7611 C   0  0  0  0  0  0
   34.8619   -8.8412   19.4325 C   0  0  0  0  0  0
   35.8788   -9.4596   19.0507 O   0  0  0  0  0  0
   33.8163   -8.7489   18.7482 O   0  5  0  0  0  0
   33.3884   -7.6358   21.4002 S   0  0  0  0  0  0
   34.1436   -7.2290   22.9101 C   0  0  0  0  0  0
   33.4951   -6.7254   24.0384 C   0  0  0  0  0  0
   34.2634   -6.4612   25.1598 C   0  0  0  0  0  0
   33.4795   -5.8612   26.5559 Cl  0  0  0  0  0  0
   35.6365   -6.6590   25.1698 C   0  0  0  0  0  0
   36.2892   -7.1322   24.0374 C   0  0  0  0  0  0
   35.5486   -7.4595   22.8837 C   0  0  0  0  0  0
   37.9760  -10.4942   26.1749 C   0  0  0  0  0  0
   38.2406  -10.7732   27.5185 C   0  0  0  0  0  0
   37.2685  -11.6495   28.2962 C   0  0  0  0  0  0
   39.3991  -10.2597   28.1229 C   0  0  0  0  0  0
   39.7246  -10.5872   29.7945 Cl  0  0  0  0  0  0
   42.0942   -8.2403   27.3042 H   0  0  0  0  0  0
   42.1859   -9.6570   28.3602 H   0  0  0  0  0  0
   41.2623   -8.2461   28.8619 H   0  0  0  0  0  0
   40.6599   -8.5680   25.4501 H   0  0  0  0  0  0
   37.8864  -11.2057   23.4447 H   0  0  0  0  0  0
   36.7035   -9.9329   23.6821 H   0  0  0  0  0  0
   38.8831   -9.9446   21.5296 H   0  0  0  0  0  0
   37.2458  -10.4771   21.2509 H   0  0  0  0  0  0
   38.1091   -7.6306   21.9424 H   0  0  0  0  0  0
   37.7256   -8.1946   20.3712 H   0  0  0  0  0  0
   32.4278   -6.5533   24.0429 H   0  0  0  0  0  0
   36.2059   -6.4226   26.0564 H   0  0  0  0  0  0
   37.3597   -7.2631   24.0640 H   0  0  0  0  0  0
   37.0842  -10.9021   25.7251 H   0  0  0  0  0  0
   36.4709  -12.0465   27.6666 H   0  0  0  0  0  0
   37.7979  -12.4969   28.7340 H   0  0  0  0  0  0
   36.8186  -11.0838   29.1118 H   0  0  0  0  0  0
  1  2  1  0  0  0
  1 27  1  0  0  0
  1 28  1  0  0  0
  1 29  1  0  0  0
  2 25  1  0  0  0
  2  3  2  0  0  0
  3  4  1  0  0  0
  3 30  1  0  0  0
  4  5  1  0  0  0
  4 22  2  0  0  0
  5  6  1  0  0  0
  6  7  1  0  0  0
  6 31  1  0  0  0
  6 32  1  0  0  0
  7  8  1  0  0  0
  7 33  1  0  0  0
  7 34  1  0  0  0
  8  9  1  0  0  0
  8 35  1  0  0  0
  8 36  1  0  0  0
  9 21  1  0  0  0
  9 10  2  0  0  0
 10 11  1  0  0  0
 10 14  1  0  0  0
 11 12  2  0  0  0
 11 13  1  0  0  0
 14 15  1  0  0  0
 15 21  1  0  0  0
 15 16  2  0  0  0
 16 17  1  0  0  0
 16 37  1  0  0  0
 17 18  1  0  0  0
 17 19  2  0  0  0
 19 20  1  0  0  0
 19 38  1  0  0  0
 20 21  2  0  0  0
 20 39  1  0  0  0
 22 23  1  0  0  0
 22 40  1  0  0  0
 23 24  1  0  0  0
 23 25  2  0  0  0
 24 41  1  0  0  0
 24 42  1  0  0  0
 24 43  1  0  0  0
 25 26  1  0  0  0
M  CHG  1  13  -1
M  END
> <s_m_source_file>
/home/user-home/yujie/0_PBCNetv2/data/FEP/MCL1/inp_ligprep.csv

> <i_m_source_file_index>
38

> <i_lp_mmshare_version>
51139

> <i_f3d_flags>
0

> <s_epik_input>
Q2xjMWMoW0NIM10pW2NIXWMoW2NIXWMxW0NIM10pT1tDSDJdW0NIMl1bQ0gyXWMoYyhzMilDKD1PKVtPSF0pYyhjMjMpW2NIXVtjSF1jKENsKVtjSF0z

> <s_epik_cmdline>
J2VwaWtfcHl0aG9uJywgJy1waHQnLCAnMi4wJywgJy1waCcsICc3LjQnLCAnLXRuJywgJzgnLCAnLW1hJywgJzIwMCcsICctaW1hZScsICc8aW5maWxlLm1hZT4nLCAnLW9tYWUnLCAnPG91dGZpbGUubWFlPic=

> <r_lp_tautomer_probability>
1

> <r_epik_Ionization_Penalty>
  0.0001

> <r_epik_Ionization_Penalty_Charging>
  0.0001

> <r_epik_Ionization_Penalty_Neutral>
  0.0000

> <r_epik_State_Penalty>
 -0.0000

> <r_epik_Charging_Adjusted_Penalty>
9.09346e-05

> <i_epik_Tot_Q>
-1

> <i_epik_Tot_abs_Q>
1

> <s_lp_Force_Field>
OPLS3e

> <r_lp_Energy>
30.74

> <b_lp_Chiralities_Consistent>
1

> <s_lp_Variant>
MCL1_63-1

> <s_i_glide_gridfile>
MCL1-001-gridgen

> <i_i_glide_lignum>
39

> <i_i_glide_rotatable_bonds>
6

> <r_i_docking_score>
-9.87602450152317

> <r_i_glide_ligand_efficiency>
-0.37984709621243

> <r_i_glide_ligand_efficiency_sa>
-1.12529552790317

> <r_i_glide_ligand_efficiency_ln>
-2.31935194830319

> <r_i_glide_gscore>
-9.87602450152317

> <r_i_glide_lipo>
-5.93592086564597

> <r_i_glide_hbond>
-0.171010682381904

> <r_i_glide_metal>
-0

> <r_i_glide_rewards>
-1.5193178938113

> <r_i_glide_evdw>
-39.6165733337402

> <r_i_glide_ecoul>
-5.46221971511841

> <r_i_glide_erotb>
0.590202387595814

> <r_i_glide_esite>
-0.0398158233250316

> <r_i_glide_emodel>
-77.954703658931

> <r_i_glide_energy>
-45.0787930488586

> <r_i_glide_einternal>
1.85764598846436

> <i_i_glide_confnum>
163

> <i_i_glide_posenum>
256

> <r_i_glide_eff_state_penalty>
-0

$$$$
