MCL1_38
                    3D
 Schrodinger Suite 2020-3.
 48 51  0  0  1  0            999 V2000
   33.3554   -8.8480   18.8462 O   0  0  0  0  0  0
   34.4628   -8.8472   19.4329 C   0  0  0  0  0  0
   35.4795   -9.4595   19.0333 O   0  5  0  0  0  0
   34.5651   -8.1106   20.7083 C   0  0  0  0  0  0
   33.3843   -7.7427   21.3138 N   0  0  0  0  0  0
   33.6181   -7.1877   22.5499 C   0  0  0  0  0  0
   32.7363   -6.7367   23.5396 C   0  0  0  0  0  0
   33.3028   -6.2808   24.7309 C   0  0  0  0  0  0
   34.6800   -6.2601   24.9262 C   0  0  0  0  0  0
   35.5554   -6.6755   23.9249 C   0  0  0  0  0  0
   35.0343   -7.1582   22.7114 C   0  0  0  0  0  0
   35.6337   -7.6985   21.5123 C   0  0  0  0  0  0
   37.1330   -7.8612   21.2832 C   0  0  0  0  0  0
   37.6177   -9.3083   21.5058 C   0  0  0  0  0  0
   37.2001   -9.9082   22.8571 C   0  0  0  0  0  0
   38.1242   -9.5980   23.8605 O   0  0  0  0  0  0
   37.8702  -10.0552   25.1338 C   0  0  0  0  0  0
   36.7014  -10.6506   25.6267 C   0  0  0  0  0  0
   36.6394  -11.1337   26.9313 C   0  0  0  0  0  0
   37.7313  -10.9723   27.7777 C   0  0  0  0  0  0
   38.8713  -10.2867   27.3339 C   0  0  0  0  0  0
   39.9605   -9.8598   28.2434 C   0  0  0  0  0  0
   39.7977   -9.8618   29.6355 C   0  0  0  0  0  0
   40.6679   -9.1316   30.4299 C   0  0  0  0  0  0
   41.6605   -8.3735   29.8333 C   0  0  0  0  0  0
   41.8907   -8.4597   28.4749 C   0  0  0  0  0  0
   41.1014   -9.2600   27.6974 C   0  0  0  0  0  0
   38.9108   -9.8599   26.0012 C   0  0  0  0  0  0
   32.4964   -7.9346   20.8712 H   0  0  0  0  0  0
   31.6648   -6.7598   23.4054 H   0  0  0  0  0  0
   32.6576   -5.9385   25.5280 H   0  0  0  0  0  0
   35.0788   -5.9029   25.8659 H   0  0  0  0  0  0
   36.6220   -6.6506   24.0931 H   0  0  0  0  0  0
   37.3995   -7.5411   20.2750 H   0  0  0  0  0  0
   37.6954   -7.2058   21.9495 H   0  0  0  0  0  0
   37.2229   -9.9402   20.7141 H   0  0  0  0  0  0
   38.7019   -9.3583   21.4034 H   0  0  0  0  0  0
   36.2788   -9.4597   23.1980 H   0  0  0  0  0  0
   37.0803  -10.9904   22.7755 H   0  0  0  0  0  0
   35.8199  -10.7326   25.0333 H   0  0  0  0  0  0
   35.7391  -11.6096   27.2909 H   0  0  0  0  0  0
   37.6460  -11.3333   28.7901 H   0  0  0  0  0  0
   38.9529  -10.3324   30.1132 H   0  0  0  0  0  0
   40.5152   -9.0646   31.4962 H   0  0  0  0  0  0
   42.2784   -7.7374   30.4463 H   0  0  0  0  0  0
   42.6788   -7.8929   28.0012 H   0  0  0  0  0  0
   41.3602   -9.2893   26.6527 H   0  0  0  0  0  0
   39.7326   -9.3105   25.5775 H   0  0  0  0  0  0
  1  2  2  0  0  0
  2  3  1  0  0  0
  2  4  1  0  0  0
  4 12  2  0  0  0
  4  5  1  0  0  0
  5 29  1  0  0  0
  5  6  1  0  0  0
  6 11  2  0  0  0
  6  7  1  0  0  0
  7  8  2  0  0  0
  7 30  1  0  0  0
  8  9  1  0  0  0
  8 31  1  0  0  0
  9 10  2  0  0  0
  9 32  1  0  0  0
 10 11  1  0  0  0
 10 33  1  0  0  0
 11 12  1  0  0  0
 12 13  1  0  0  0
 13 14  1  0  0  0
 13 34  1  0  0  0
 13 35  1  0  0  0
 14 15  1  0  0  0
 14 36  1  0  0  0
 14 37  1  0  0  0
 15 16  1  0  0  0
 15 38  1  0  0  0
 15 39  1  0  0  0
 16 17  1  0  0  0
 17 28  1  0  0  0
 17 18  2  0  0  0
 18 19  1  0  0  0
 18 40  1  0  0  0
 19 20  2  0  0  0
 19 41  1  0  0  0
 20 21  1  0  0  0
 20 42  1  0  0  0
 21 22  1  0  0  0
 21 28  2  0  0  0
 22 27  1  0  0  0
 22 23  2  0  0  0
 23 24  1  0  0  0
 23 43  1  0  0  0
 24 25  2  0  0  0
 24 44  1  0  0  0
 25 26  1  0  0  0
 25 45  1  0  0  0
 26 27  2  0  0  0
 26 46  1  0  0  0
 27 47  1  0  0  0
 28 48  1  0  0  0
M  CHG  1   3  -1
M  END
> <s_m_source_file>
/home/user-home/yujie/0_PBCNetv2/data/FEP/MCL1/inp_ligprep.csv

> <i_m_source_file_index>
27

> <i_lp_mmshare_version>
51139

> <i_f3d_flags>
0

> <s_epik_input>
W2NIXTFbY0hdW2NIXVtjSF1jKGMxMiljKGMoW25IXTIpQyg9TylbT0hdKVtDSDJdW0NIMl1bQ0gyXU9jM1tjSF1bY0hdW2NIXWMoW2NIXTMpLWM0W2NIXVtjSF1bY0hdW2NIXVtjSF00

> <s_epik_cmdline>
J2VwaWtfcHl0aG9uJywgJy1waHQnLCAnMi4wJywgJy1waCcsICc3LjQnLCAnLXRuJywgJzgnLCAnLW1hJywgJzIwMCcsICctaW1hZScsICc8aW5maWxlLm1hZT4nLCAnLW9tYWUnLCAnPG91dGZpbGUubWFlPic=

> <r_lp_tautomer_probability>
1

> <r_epik_Ionization_Penalty>
  0.0006

> <r_epik_Ionization_Penalty_Charging>
  0.0006

> <r_epik_Ionization_Penalty_Neutral>
  0.0000

> <r_epik_State_Penalty>
  0.0004

> <r_epik_Charging_Adjusted_Penalty>
0.000921483

> <i_epik_Tot_Q>
-1

> <i_epik_Tot_abs_Q>
1

> <s_lp_Force_Field>
OPLS3e

> <r_lp_Energy>
44.0546

> <b_lp_Chiralities_Consistent>
1

> <s_lp_Variant>
MCL1_38-1

> <s_i_glide_gridfile>
MCL1-001-gridgen

> <i_i_glide_lignum>
28

> <i_i_glide_rotatable_bonds>
7

> <r_i_docking_score>
-9.77381889380286

> <r_i_glide_ligand_efficiency>
-0.349064960492959

> <r_i_glide_ligand_efficiency_sa>
-1.05996680832379

> <r_i_glide_ligand_efficiency_ln>
-2.25608437248213

> <r_i_glide_gscore>
-9.77417413980286

> <r_i_glide_lipo>
-6.14188534520737

> <r_i_glide_hbond>
-0.2

> <r_i_glide_metal>
-0

> <r_i_glide_rewards>
-1.78218518289892

> <r_i_glide_evdw>
-36.9423866271973

> <r_i_glide_ecoul>
-4.12675476074219

> <r_i_glide_erotb>
0.843599049903382

> <r_i_glide_esite>
-0.0275701161287578

> <r_i_glide_emodel>
-69.6713154906738

> <r_i_glide_energy>
-41.0691413879395

> <r_i_glide_einternal>
6.18041706085205

> <i_i_glide_confnum>
145

> <i_i_glide_posenum>
39

> <r_i_glide_eff_state_penalty>
0.000355246

$$$$
