MCL1_50
                    3D
 Schrodinger Suite 2020-3.
 44 46  0  0  1  0            999 V2000
   41.5285   -8.8333   27.8916 C   0  0  0  0  0  0
   40.2791   -9.4597   27.2917 C   0  0  0  0  0  0
   39.9784   -9.2206   25.9473 C   0  0  0  0  0  0
   38.8553   -9.7793   25.3426 C   0  0  0  0  0  0
   38.6788   -9.5096   23.9998 O   0  0  0  0  0  0
   37.6064  -10.1213   23.2903 C   0  0  0  0  0  0
   37.6478   -9.6878   21.8115 C   0  0  0  0  0  0
   37.2228   -8.2284   21.5278 C   0  0  0  0  0  0
   35.7243   -7.9857   21.6953 C   0  0  0  0  0  0
   34.7160   -8.2597   20.7631 C   0  0  0  0  0  0
   34.7038   -8.8730   19.4204 C   0  0  0  0  0  0
   35.7417   -9.4596   19.0363 O   0  0  0  0  0  0
   33.6458   -8.7916   18.7520 O   0  5  0  0  0  0
   33.5010   -7.8762   21.2760 N   0  0  0  0  0  0
   33.6403   -7.4014   22.5547 C   0  0  0  0  0  0
   32.6750   -6.9418   23.4575 C   0  0  0  0  0  0
   33.1244   -6.5408   24.7139 C   0  0  0  0  0  0
   34.4698   -6.5888   25.0549 C   0  0  0  0  0  0
   35.4294   -7.0351   24.1478 C   0  0  0  0  0  0
   37.0746   -7.0561   24.6342 Cl  0  0  0  0  0  0
   35.0350   -7.4591   22.8628 C   0  0  0  0  0  0
   37.9960  -10.5682   26.1186 C   0  0  0  0  0  0
   38.2716  -10.8139   27.4685 C   0  0  0  0  0  0
   37.3191  -11.6966   28.2641 C   0  0  0  0  0  0
   39.4164  -10.2594   28.0617 C   0  0  0  0  0  0
   39.7565  -10.5480   29.7387 Cl  0  0  0  0  0  0
   32.6549   -7.9915   20.7343 H   0  0  0  0  0  0
   42.0748   -8.2213   27.1725 H   0  0  0  0  0  0
   42.2031   -9.6082   28.2586 H   0  0  0  0  0  0
   41.2635   -8.2016   28.7429 H   0  0  0  0  0  0
   40.6396   -8.6090   25.3498 H   0  0  0  0  0  0
   37.7072  -11.2063   23.3532 H   0  0  0  0  0  0
   36.6503   -9.8544   23.7378 H   0  0  0  0  0  0
   38.6605   -9.8375   21.4363 H   0  0  0  0  0  0
   37.0254  -10.3599   21.2219 H   0  0  0  0  0  0
   37.8190   -7.5453   22.1314 H   0  0  0  0  0  0
   37.5065   -7.9847   20.5031 H   0  0  0  0  0  0
   31.6246   -6.9030   23.2049 H   0  0  0  0  0  0
   32.4111   -6.1822   25.4424 H   0  0  0  0  0  0
   34.7755   -6.2659   26.0404 H   0  0  0  0  0  0
   37.1129  -11.0052   25.6770 H   0  0  0  0  0  0
   36.4880  -12.0668   27.6600 H   0  0  0  0  0  0
   37.8550  -12.5593   28.6661 H   0  0  0  0  0  0
   36.9063  -11.1434   29.1101 H   0  0  0  0  0  0
  1  2  1  0  0  0
  1 28  1  0  0  0
  1 29  1  0  0  0
  1 30  1  0  0  0
  2 25  1  0  0  0
  2  3  2  0  0  0
  3  4  1  0  0  0
  3 31  1  0  0  0
  4  5  1  0  0  0
  4 22  2  0  0  0
  5  6  1  0  0  0
  6  7  1  0  0  0
  6 32  1  0  0  0
  6 33  1  0  0  0
  7  8  1  0  0  0
  7 34  1  0  0  0
  7 35  1  0  0  0
  8  9  1  0  0  0
  8 36  1  0  0  0
  8 37  1  0  0  0
  9 21  1  0  0  0
  9 10  2  0  0  0
 10 11  1  0  0  0
 10 14  1  0  0  0
 11 12  2  0  0  0
 11 13  1  0  0  0
 14 27  1  0  0  0
 14 15  1  0  0  0
 15 21  1  0  0  0
 15 16  2  0  0  0
 16 17  1  0  0  0
 16 38  1  0  0  0
 17 18  2  0  0  0
 17 39  1  0  0  0
 18 19  1  0  0  0
 18 40  1  0  0  0
 19 20  1  0  0  0
 19 21  2  0  0  0
 22 23  1  0  0  0
 22 41  1  0  0  0
 23 24  1  0  0  0
 23 25  2  0  0  0
 24 42  1  0  0  0
 24 43  1  0  0  0
 24 44  1  0  0  0
 25 26  1  0  0  0
M  CHG  1  13  -1
M  END
> <s_m_source_file>
/home/user-home/yujie/0_PBCNetv2/data/FEP/MCL1/inp_ligprep.csv

> <i_m_source_file_index>
7

> <i_lp_mmshare_version>
51139

> <i_f3d_flags>
0

> <s_epik_input>
Q2xjMWMoW0NIM10pW2NIXWMoW2NIXWMxW0NIM10pT1tDSDJdW0NIMl1bQ0gyXWMoYyhbbkhdMilDKD1PKVtPSF0pYyhjMjMpYyhDbClbY0hdW2NIXVtjSF0z

> <s_epik_cmdline>
J2VwaWtfcHl0aG9uJywgJy1waHQnLCAnMi4wJywgJy1waCcsICc3LjQnLCAnLXRuJywgJzgnLCAnLW1hJywgJzIwMCcsICctaW1hZScsICc8aW5maWxlLm1hZT4nLCAnLW9tYWUnLCAnPG91dGZpbGUubWFlPic=

> <r_lp_tautomer_probability>
1

> <r_epik_Ionization_Penalty>
  0.0002

> <r_epik_Ionization_Penalty_Charging>
  0.0002

> <r_epik_Ionization_Penalty_Neutral>
  0.0000

> <r_epik_State_Penalty>
 -0.0000

> <r_epik_Charging_Adjusted_Penalty>
0.000204149

> <i_epik_Tot_Q>
-1

> <i_epik_Tot_abs_Q>
1

> <s_lp_Force_Field>
OPLS3e

> <r_lp_Energy>
30.735

> <b_lp_Chiralities_Consistent>
1

> <s_lp_Variant>
MCL1_50-1

> <s_i_glide_gridfile>
MCL1-001-gridgen

> <i_i_glide_lignum>
8

> <i_i_glide_rotatable_bonds>
6

> <r_i_docking_score>
-9.84421492238448

> <r_i_glide_ligand_efficiency>
-0.378623650860941

> <r_i_glide_ligand_efficiency_sa>
-1.12167107586341

> <r_i_glide_ligand_efficiency_ln>
-2.31188157301821

> <r_i_glide_gscore>
-9.84421492238448

> <r_i_glide_lipo>
-5.65657603822865

> <r_i_glide_hbond>
-0.174858873237278

> <r_i_glide_metal>
-0

> <r_i_glide_rewards>
-1.64129580848948

> <r_i_glide_evdw>
-43.3347320556641

> <r_i_glide_ecoul>
-5.36680364608765

> <r_i_glide_erotb>
0.637301348502223

> <r_i_glide_esite>
-0.0370284012349508

> <r_i_glide_emodel>
-84.7452321983045

> <r_i_glide_energy>
-48.7015357017517

> <r_i_glide_einternal>
1.55618703365326

> <i_i_glide_confnum>
54

> <i_i_glide_posenum>
283

> <r_i_glide_eff_state_penalty>
-0

$$$$
