MCL1_56
                    3D
 Schrodinger Suite 2020-3.
 47 49  0  0  1  0            999 V2000
   37.3660  -11.6677   28.5006 C   0  0  0  0  0  0
   38.3165  -10.7746   27.7173 C   0  0  0  0  0  0
   38.0273  -10.4678   26.3847 C   0  0  0  0  0  0
   38.8937   -9.6624   25.6325 C   0  0  0  0  0  0
   38.6790   -9.3152   24.3210 O   0  0  0  0  0  0
   37.8267  -10.1236   23.5230 C   0  0  0  0  0  0
   38.0389   -9.6974   22.0652 C   0  0  0  0  0  0
   37.6781   -8.2254   21.7826 C   0  0  0  0  0  0
   36.1940   -7.9655   21.9669 C   0  0  0  0  0  0
   35.1476   -8.2401   21.0810 C   0  0  0  0  0  0
   35.1990   -8.9147   19.7524 C   0  0  0  0  0  0
   36.2790   -9.4594   19.4333 O   0  0  0  0  0  0
   34.1922   -8.9362   19.0114 O   0  5  0  0  0  0
   33.9449   -7.8045   21.6500 N   0  0  0  0  0  0
   32.6017   -7.8704   21.0673 C   0  0  0  0  0  0
   34.1895   -7.3712   22.9504 C   0  0  0  0  0  0
   33.3182   -6.9216   23.9582 C   0  0  0  0  0  0
   33.8759   -6.5837   25.1927 C   0  0  0  0  0  0
   35.2435   -6.6596   25.4217 C   0  0  0  0  0  0
   36.1133   -7.0762   24.4164 C   0  0  0  0  0  0
   35.5933   -7.4578   23.1668 C   0  0  0  0  0  0
   40.0464   -9.1571   26.2312 C   0  0  0  0  0  0
   40.3605   -9.4597   27.5576 C   0  0  0  0  0  0
   41.6360   -8.8901   28.1659 C   0  0  0  0  0  0
   39.4856  -10.2629   28.3044 C   0  0  0  0  0  0
   39.8515  -10.6307   29.9538 Cl  0  0  0  0  0  0
   36.4963  -11.9661   27.9132 H   0  0  0  0  0  0
   37.0115  -11.1518   29.3942 H   0  0  0  0  0  0
   37.8855  -12.5702   28.8277 H   0  0  0  0  0  0
   37.1218  -10.8551   25.9422 H   0  0  0  0  0  0
   38.0812  -11.1808   23.6331 H   0  0  0  0  0  0
   36.7875  -10.0010   23.8224 H   0  0  0  0  0  0
   39.0790   -9.8600   21.7917 H   0  0  0  0  0  0
   37.4559  -10.3537   21.4227 H   0  0  0  0  0  0
   38.2668   -7.5737   22.4298 H   0  0  0  0  0  0
   37.9900   -7.9615   20.7716 H   0  0  0  0  0  0
   31.8600   -7.3906   21.7103 H   0  0  0  0  0  0
   32.5891   -7.3511   20.1064 H   0  0  0  0  0  0
   32.3189   -8.9150   20.9232 H   0  0  0  0  0  0
   32.2523   -6.8496   23.8090 H   0  0  0  0  0  0
   33.2254   -6.2432   25.9888 H   0  0  0  0  0  0
   35.6408   -6.3778   26.3876 H   0  0  0  0  0  0
   37.1741   -7.1298   24.6079 H   0  0  0  0  0  0
   40.7042   -8.5310   25.6462 H   0  0  0  0  0  0
   42.1824   -8.2555   27.4664 H   0  0  0  0  0  0
   41.3982   -8.2938   29.0492 H   0  0  0  0  0  0
   42.2968   -9.6985   28.4833 H   0  0  0  0  0  0
  1  2  1  0  0  0
  1 27  1  0  0  0
  1 28  1  0  0  0
  1 29  1  0  0  0
  2 25  1  0  0  0
  2  3  2  0  0  0
  3  4  1  0  0  0
  3 30  1  0  0  0
  4  5  1  0  0  0
  4 22  2  0  0  0
  5  6  1  0  0  0
  6  7  1  0  0  0
  6 31  1  0  0  0
  6 32  1  0  0  0
  7  8  1  0  0  0
  7 33  1  0  0  0
  7 34  1  0  0  0
  8  9  1  0  0  0
  8 35  1  0  0  0
  8 36  1  0  0  0
  9 21  1  0  0  0
  9 10  2  0  0  0
 10 11  1  0  0  0
 10 14  1  0  0  0
 11 12  2  0  0  0
 11 13  1  0  0  0
 14 15  1  0  0  0
 14 16  1  0  0  0
 15 37  1  0  0  0
 15 38  1  0  0  0
 15 39  1  0  0  0
 16 21  1  0  0  0
 16 17  2  0  0  0
 17 18  1  0  0  0
 17 40  1  0  0  0
 18 19  2  0  0  0
 18 41  1  0  0  0
 19 20  1  0  0  0
 19 42  1  0  0  0
 20 21  2  0  0  0
 20 43  1  0  0  0
 22 23  1  0  0  0
 22 44  1  0  0  0
 23 24  1  0  0  0
 23 25  2  0  0  0
 24 45  1  0  0  0
 24 46  1  0  0  0
 24 47  1  0  0  0
 25 26  1  0  0  0
M  CHG  1  13  -1
M  END
> <s_m_source_file>
/home/user-home/yujie/0_PBCNetv2/data/FEP/MCL1/inp_ligprep.csv

> <i_m_source_file_index>
41

> <i_lp_mmshare_version>
51139

> <i_f3d_flags>
0

> <s_epik_input>
Q2xjMWMoW0NIM10pW2NIXWMoW2NIXWMxW0NIM10pT1tDSDJdW0NIMl1bQ0gyXWMoYyhDKD1PKVtPSF0pbjJbQ0gzXSljKGMyMylbY0hdW2NIXVtjSF1bY0hdMw==

> <s_epik_cmdline>
J2VwaWtfcHl0aG9uJywgJy1waHQnLCAnMi4wJywgJy1waCcsICc3LjQnLCAnLXRuJywgJzgnLCAnLW1hJywgJzIwMCcsICctaW1hZScsICc8aW5maWxlLm1hZT4nLCAnLW9tYWUnLCAnPG91dGZpbGUubWFlPic=

> <r_lp_tautomer_probability>
1

> <r_epik_Ionization_Penalty>
  0.0099

> <r_epik_Ionization_Penalty_Charging>
  0.0099

> <r_epik_Ionization_Penalty_Neutral>
  0.0000

> <r_epik_State_Penalty>
  0.0075

> <r_epik_Charging_Adjusted_Penalty>
0.0174362

> <i_epik_Tot_Q>
-1

> <i_epik_Tot_abs_Q>
1

> <s_lp_Force_Field>
OPLS3e

> <r_lp_Energy>
38.4447

> <b_lp_Chiralities_Consistent>
1

> <s_lp_Variant>
MCL1_56-1

> <s_i_glide_gridfile>
MCL1-001-gridgen

> <i_i_glide_lignum>
42

> <i_i_glide_rotatable_bonds>
6

> <r_i_docking_score>
-9.86371639330128

> <r_i_glide_ligand_efficiency>
-0.379373707434665

> <r_i_glide_ligand_efficiency_sa>
-1.12389311551174

> <r_i_glide_ligand_efficiency_ln>
-2.31646142947347

> <r_i_glide_gscore>
-9.87125629330128

> <r_i_glide_lipo>
-5.78848781678292

> <r_i_glide_hbond>
-0.2

> <r_i_glide_metal>
-0

> <r_i_glide_rewards>
-1.86359460717328

> <r_i_glide_evdw>
-44.7112159729004

> <r_i_glide_ecoul>
-3.09007787704468

> <r_i_glide_erotb>
0.70154775679004

> <r_i_glide_esite>
-0.0216491459334028

> <r_i_glide_emodel>
-84.8850435821129

> <r_i_glide_energy>
-47.8012938499451

> <r_i_glide_einternal>
1.52509891986847

> <i_i_glide_confnum>
226

> <i_i_glide_posenum>
312

> <r_i_glide_eff_state_penalty>
0.0075399

$$$$
