MCL1_61
                    3D
 Schrodinger Suite 2020-3.
 43 45  0  0  1  0            999 V2000
   41.2973   -9.3327   28.1296 C   0  0  0  0  0  0
   40.0084   -9.7971   27.4615 C   0  0  0  0  0  0
   39.8166   -9.4589   26.1164 C   0  0  0  0  0  0
   38.6718   -9.8610   25.4261 C   0  0  0  0  0  0
   38.5926   -9.5350   24.0846 O   0  0  0  0  0  0
   37.4978  -10.0309   23.3133 C   0  0  0  0  0  0
   37.5916   -9.5399   21.8580 C   0  0  0  0  0  0
   37.0892   -8.1000   21.5839 C   0  0  0  0  0  0
   35.5705   -7.9005   21.7251 C   0  0  0  0  0  0
   34.6235   -8.2579   20.7393 C   0  0  0  0  0  0
   34.7737   -8.9511   19.4323 C   0  0  0  0  0  0
   33.7833   -9.0200   18.6706 O   0  0  0  0  0  0
   35.8796   -9.4592   19.1391 O   0  5  0  0  0  0
   32.9852   -7.8063   21.1685 S   0  0  0  0  0  0
   33.5054   -7.2205   22.7184 C   0  0  0  0  0  0
   32.6487   -6.6955   23.6954 C   0  0  0  0  0  0
   33.1965   -6.2844   24.9007 C   0  0  0  0  0  0
   34.5577   -6.3923   25.1291 C   0  0  0  0  0  0
   35.4224   -6.9083   24.1645 C   0  0  0  0  0  0
   37.0784   -7.0039   24.6179 Cl  0  0  0  0  0  0
   34.9211   -7.3393   22.9032 C   0  0  0  0  0  0
   37.6817  -10.5680   26.1228 C   0  0  0  0  0  0
   37.8366  -10.8846   27.4733 C   0  0  0  0  0  0
   36.7110  -11.6272   28.1773 C   0  0  0  0  0  0
   39.0092  -10.5096   28.1499 C   0  0  0  0  0  0
   39.2015  -10.9148   29.8269 Cl  0  0  0  0  0  0
   42.1488   -9.8553   27.6959 H   0  0  0  0  0  0
   41.3146   -9.4824   29.2090 H   0  0  0  0  0  0
   41.4481   -8.2677   27.9471 H   0  0  0  0  0  0
   40.5765   -8.8997   25.5877 H   0  0  0  0  0  0
   37.5272  -11.1220   23.3222 H   0  0  0  0  0  0
   36.5479   -9.7227   23.7505 H   0  0  0  0  0  0
   38.6311   -9.6173   21.5356 H   0  0  0  0  0  0
   37.0524  -10.2412   21.2226 H   0  0  0  0  0  0
   37.6727   -7.3895   22.1624 H   0  0  0  0  0  0
   37.3731   -7.8452   20.5613 H   0  0  0  0  0  0
   31.5850   -6.6164   23.5198 H   0  0  0  0  0  0
   32.5596   -5.8775   25.6732 H   0  0  0  0  0  0
   34.9550   -6.0658   26.0809 H   0  0  0  0  0  0
   36.7779  -10.8815   25.6246 H   0  0  0  0  0  0
   35.7977  -11.6591   27.5810 H   0  0  0  0  0  0
   37.0205  -12.6462   28.4007 H   0  0  0  0  0  0
   36.4581  -11.1389   29.1182 H   0  0  0  0  0  0
  1  2  1  0  0  0
  1 27  1  0  0  0
  1 28  1  0  0  0
  1 29  1  0  0  0
  2 25  1  0  0  0
  2  3  2  0  0  0
  3  4  1  0  0  0
  3 30  1  0  0  0
  4  5  1  0  0  0
  4 22  2  0  0  0
  5  6  1  0  0  0
  6  7  1  0  0  0
  6 31  1  0  0  0
  6 32  1  0  0  0
  7  8  1  0  0  0
  7 33  1  0  0  0
  7 34  1  0  0  0
  8  9  1  0  0  0
  8 35  1  0  0  0
  8 36  1  0  0  0
  9 21  1  0  0  0
  9 10  2  0  0  0
 10 11  1  0  0  0
 10 14  1  0  0  0
 11 12  2  0  0  0
 11 13  1  0  0  0
 14 15  1  0  0  0
 15 21  1  0  0  0
 15 16  2  0  0  0
 16 17  1  0  0  0
 16 37  1  0  0  0
 17 18  2  0  0  0
 17 38  1  0  0  0
 18 19  1  0  0  0
 18 39  1  0  0  0
 19 20  1  0  0  0
 19 21  2  0  0  0
 22 23  1  0  0  0
 22 40  1  0  0  0
 23 24  1  0  0  0
 23 25  2  0  0  0
 24 41  1  0  0  0
 24 42  1  0  0  0
 24 43  1  0  0  0
 25 26  1  0  0  0
M  CHG  1  13  -1
M  END
> <s_m_source_file>
/home/user-home/yujie/0_PBCNetv2/data/FEP/MCL1/inp_ligprep.csv

> <i_m_source_file_index>
39

> <i_lp_mmshare_version>
51139

> <i_f3d_flags>
0

> <s_epik_input>
Q2xjMWMoW0NIM10pW2NIXWMoW2NIXWMxW0NIM10pT1tDSDJdW0NIMl1bQ0gyXWMoYyhzMilDKD1PKVtPSF0pYyhjMjMpYyhDbClbY0hdW2NIXVtjSF0z

> <s_epik_cmdline>
J2VwaWtfcHl0aG9uJywgJy1waHQnLCAnMi4wJywgJy1waCcsICc3LjQnLCAnLXRuJywgJzgnLCAnLW1hJywgJzIwMCcsICctaW1hZScsICc8aW5maWxlLm1hZT4nLCAnLW9tYWUnLCAnPG91dGZpbGUubWFlPic=

> <r_lp_tautomer_probability>
1

> <r_epik_Ionization_Penalty>
  0.0001

> <r_epik_Ionization_Penalty_Charging>
  0.0001

> <r_epik_Ionization_Penalty_Neutral>
  0.0000

> <r_epik_State_Penalty>
 -0.0000

> <r_epik_Charging_Adjusted_Penalty>
7.87387e-05

> <i_epik_Tot_Q>
-1

> <i_epik_Tot_abs_Q>
1

> <s_lp_Force_Field>
OPLS3e

> <r_lp_Energy>
36.1132

> <b_lp_Chiralities_Consistent>
1

> <s_lp_Variant>
MCL1_61-1

> <s_i_glide_gridfile>
MCL1-001-gridgen

> <i_i_glide_lignum>
40

> <i_i_glide_rotatable_bonds>
6

> <r_i_docking_score>
-9.70918528959375

> <r_i_glide_ligand_efficiency>
-0.373430203445914

> <r_i_glide_ligand_efficiency_sa>
-1.10628550833162

> <r_i_glide_ligand_efficiency_ln>
-2.28017030682567

> <r_i_glide_gscore>
-9.70918528959375

> <r_i_glide_lipo>
-5.69705533822203

> <r_i_glide_hbond>
-0.2

> <r_i_glide_metal>
-0

> <r_i_glide_rewards>
-1.5079229016528

> <r_i_glide_evdw>
-43.7280349731445

> <r_i_glide_ecoul>
-4.4428243637085

> <r_i_glide_erotb>
0.590202387595814

> <r_i_glide_esite>
-0.0415840341012354

> <r_i_glide_emodel>
-76.5995010191502

> <r_i_glide_energy>
-48.170859336853

> <r_i_glide_einternal>
12.0168981552124

> <i_i_glide_confnum>
248

> <i_i_glide_posenum>
299

> <r_i_glide_eff_state_penalty>
-0

$$$$
