MCL1_62
                    3D
 Schrodinger Suite 2020-3.
 43 46  0  0  1  0            999 V2000
   35.0790   -9.3560   18.9356 O   0  0  0  0  0  0
   35.8990   -9.0608   19.8332 C   0  0  0  0  0  0
   37.0790   -9.4597   19.8321 O   0  5  0  0  0  0
   35.4468   -8.2314   20.9558 C   0  0  0  0  0  0
   33.9200   -7.3972   20.7510 S   0  0  0  0  0  0
   33.9464   -6.8928   22.4140 C   0  0  0  0  0  0
   32.9193   -6.1987   23.0636 C   0  0  0  0  0  0
   33.0677   -5.9394   24.4178 C   0  0  0  0  0  0
   34.2022   -6.3217   25.1055 C   0  0  0  0  0  0
   35.2350   -6.9907   24.4623 C   0  0  0  0  0  0
   36.5635   -7.4597   25.4333 Cl  0  0  0  0  0  0
   35.1408   -7.3038   23.0840 C   0  0  0  0  0  0
   36.0404   -8.0139   22.2030 C   0  0  0  0  0  0
   37.3885   -8.5794   22.6585 C   0  0  0  0  0  0
   37.2005   -9.9596   23.3362 C   0  0  0  0  0  0
   38.3399  -10.4640   24.2168 C   0  0  0  0  0  0
   38.8387   -9.3721   24.9851 O   0  0  0  0  0  0
   39.4109   -9.5998   26.2124 C   0  0  0  0  0  0
   40.6790   -9.0597   26.4026 C   0  0  0  0  0  0
   41.3268   -9.1304   27.6267 C   0  0  0  0  0  0
   40.7356   -9.8003   28.6892 C   0  0  0  0  0  0
   39.4738  -10.4146   28.5338 C   0  0  0  0  0  0
   38.9059  -11.1733   29.5802 C   0  0  0  0  0  0
   37.6433  -11.7302   29.4333 C   0  0  0  0  0  0
   36.8861  -11.4768   28.2973 C   0  0  0  0  0  0
   37.4199  -10.7406   27.2462 C   0  0  0  0  0  0
   38.7575  -10.2597   27.3036 C   0  0  0  0  0  0
   32.0204   -5.9070   22.5387 H   0  0  0  0  0  0
   32.2790   -5.4597   24.9645 H   0  0  0  0  0  0
   34.2750   -6.1095   26.1632 H   0  0  0  0  0  0
   38.1054   -8.6736   21.8446 H   0  0  0  0  0  0
   37.8982   -7.8660   23.3011 H   0  0  0  0  0  0
   36.2994   -9.9445   23.9490 H   0  0  0  0  0  0
   37.0790  -10.7082   22.5528 H   0  0  0  0  0  0
   38.0145  -11.3225   24.8007 H   0  0  0  0  0  0
   39.0790  -10.8799   23.5547 H   0  0  0  0  0  0
   41.1571   -8.5605   25.5770 H   0  0  0  0  0  0
   42.3005   -8.6788   27.7452 H   0  0  0  0  0  0
   41.2574   -9.8805   29.6322 H   0  0  0  0  0  0
   39.4600  -11.3220   30.4959 H   0  0  0  0  0  0
   37.2401  -12.3270   30.2326 H   0  0  0  0  0  0
   35.8790  -11.8597   28.2256 H   0  0  0  0  0  0
   36.8061  -10.5455   26.3808 H   0  0  0  0  0  0
  1  2  2  0  0  0
  2  3  1  0  0  0
  2  4  1  0  0  0
  4 13  2  0  0  0
  4  5  1  0  0  0
  5  6  1  0  0  0
  6 12  2  0  0  0
  6  7  1  0  0  0
  7  8  2  0  0  0
  7 28  1  0  0  0
  8  9  1  0  0  0
  8 29  1  0  0  0
  9 10  2  0  0  0
  9 30  1  0  0  0
 10 11  1  0  0  0
 10 12  1  0  0  0
 12 13  1  0  0  0
 13 14  1  0  0  0
 14 15  1  0  0  0
 14 31  1  0  0  0
 14 32  1  0  0  0
 15 16  1  0  0  0
 15 33  1  0  0  0
 15 34  1  0  0  0
 16 17  1  0  0  0
 16 35  1  0  0  0
 16 36  1  0  0  0
 17 18  1  0  0  0
 18 27  1  0  0  0
 18 19  2  0  0  0
 19 20  1  0  0  0
 19 37  1  0  0  0
 20 21  2  0  0  0
 20 38  1  0  0  0
 21 22  1  0  0  0
 21 39  1  0  0  0
 22 27  2  0  0  0
 22 23  1  0  0  0
 23 24  2  0  0  0
 23 40  1  0  0  0
 24 25  1  0  0  0
 24 41  1  0  0  0
 25 26  2  0  0  0
 25 42  1  0  0  0
 26 27  1  0  0  0
 26 43  1  0  0  0
M  CHG  1   3  -1
M  END
> <s_m_source_file>
/home/user-home/yujie/0_PBCNetv2/data/FEP/MCL1/inp_ligprep.csv

> <i_m_source_file_index>
35

> <i_lp_mmshare_version>
51139

> <i_f3d_flags>
0

> <s_epik_input>
W2NIXTFbY0hdW2NIXWMoQ2wpYyhjMTIpYyhjKHMyKUMoPU8pW09IXSlbQ0gyXVtDSDJdW0NIMl1PYyhbY0hdW2NIXVtjSF0zKWMoYzM0KVtjSF1bY0hdW2NIXVtjSF00

> <s_epik_cmdline>
J2VwaWtfcHl0aG9uJywgJy1waHQnLCAnMi4wJywgJy1waCcsICc3LjQnLCAnLXRuJywgJzgnLCAnLW1hJywgJzIwMCcsICctaW1hZScsICc8aW5maWxlLm1hZT4nLCAnLW9tYWUnLCAnPG91dGZpbGUubWFlPic=

> <r_lp_tautomer_probability>
1

> <r_epik_Ionization_Penalty>
  0.0001

> <r_epik_Ionization_Penalty_Charging>
  0.0001

> <r_epik_Ionization_Penalty_Neutral>
  0.0000

> <r_epik_State_Penalty>
 -0.0000

> <r_epik_Charging_Adjusted_Penalty>
8.23415e-05

> <i_epik_Tot_Q>
-1

> <i_epik_Tot_abs_Q>
1

> <s_lp_Force_Field>
OPLS3e

> <r_lp_Energy>
47.8004

> <b_lp_Chiralities_Consistent>
1

> <s_lp_Variant>
MCL1_62-1

> <s_i_glide_gridfile>
MCL1-001-gridgen

> <i_i_glide_lignum>
36

> <i_i_glide_rotatable_bonds>
6

> <r_i_docking_score>
-9.83840474853793

> <r_i_glide_ligand_efficiency>
-0.36438536105696

> <r_i_glide_ligand_efficiency_sa>
-1.09315608196993

> <r_i_glide_ligand_efficiency_ln>
-2.29021842668083

> <r_i_glide_gscore>
-9.83840474853793

> <r_i_glide_lipo>
-6.0406749658329

> <r_i_glide_hbond>
-0.20537957729806

> <r_i_glide_metal>
-0

> <r_i_glide_rewards>
-1.60991359090909

> <r_i_glide_evdw>
-40.5270118713379

> <r_i_glide_ecoul>
-2.93436646461487

> <r_i_glide_erotb>
0.499214537276342

> <r_i_glide_esite>
-0.0151455885150967

> <r_i_glide_emodel>
-74.9037467089546

> <r_i_glide_energy>
-43.4613783359528

> <r_i_glide_einternal>
12.1336278915405

> <i_i_glide_confnum>
17

> <i_i_glide_posenum>
133

> <r_i_glide_eff_state_penalty>
-0

$$$$
