MCL1_57
                    3D
 Schrodinger Suite 2020-3.
 48 51  0  0  1  0            999 V2000
   32.0309   -7.9695   21.0881 C   0  0  0  0  0  0
   33.3757   -7.8367   21.6545 N   0  0  0  0  0  0
   34.5897   -8.0696   21.0142 C   0  0  0  0  0  0
   34.7258   -8.5314   19.6490 C   0  0  0  0  0  0
   35.4681   -9.4601   19.3261 O   0  0  0  0  0  0
   34.0003   -7.7790   18.7651 O   0  0  0  0  0  0
   35.6379   -7.8280   21.9089 C   0  0  0  0  0  0
   37.1297   -7.9706   21.6275 C   0  0  0  0  0  0
   37.7850   -9.1720   22.3315 C   0  0  0  0  0  0
   38.4302   -8.8199   23.6837 C   0  0  0  0  0  0
   37.8500   -9.5493   24.7469 O   0  0  0  0  0  0
   38.5698   -9.7345   25.9183 C   0  0  0  0  0  0
   39.8763   -9.2680   26.1571 C   0  0  0  0  0  0
   40.5138   -9.4924   27.3720 C   0  0  0  0  0  0
   39.8791  -10.2242   28.3706 C   0  0  0  0  0  0
   38.5644  -10.6904   28.1862 C   0  0  0  0  0  0
   37.8964  -11.4087   29.2031 C   0  0  0  0  0  0
   36.5662  -11.7645   29.0338 C   0  0  0  0  0  0
   35.8881  -11.4598   27.8587 C   0  0  0  0  0  0
   36.5412  -10.8253   26.8138 C   0  0  0  0  0  0
   37.8917  -10.4209   26.9565 C   0  0  0  0  0  0
   35.0274   -7.3848   23.1386 C   0  0  0  0  0  0
   35.5191   -6.9726   24.3895 C   0  0  0  0  0  0
   34.6307   -6.5946   25.3921 C   0  0  0  0  0  0
   33.2588   -6.6054   25.1718 C   0  0  0  0  0  0
   32.7166   -6.9927   23.9490 C   0  0  0  0  0  0
   33.6135   -7.3851   22.9420 C   0  0  0  0  0  0
   32.0270   -8.6158   20.2068 H   0  0  0  0  0  0
   31.3677   -8.4240   21.8284 H   0  0  0  0  0  0
   31.6490   -6.9799   20.8223 H   0  0  0  0  0  0
   37.2994   -8.0727   20.5576 H   0  0  0  0  0  0
   37.6690   -7.0598   21.8715 H   0  0  0  0  0  0
   37.0825  -10.0018   22.4336 H   0  0  0  0  0  0
   38.5731   -9.5502   21.6797 H   0  0  0  0  0  0
   39.4780   -9.0597   23.6104 H   0  0  0  0  0  0
   38.3913   -7.7504   23.9082 H   0  0  0  0  0  0
   40.4208   -8.6970   25.4236 H   0  0  0  0  0  0
   41.5110   -9.1139   27.5315 H   0  0  0  0  0  0
   40.3838  -10.4060   29.3076 H   0  0  0  0  0  0
   38.4044  -11.6289   30.1285 H   0  0  0  0  0  0
   36.0438  -12.2603   29.8328 H   0  0  0  0  0  0
   34.8498  -11.7359   27.7507 H   0  0  0  0  0  0
   36.0000  -10.6041   25.9017 H   0  0  0  0  0  0
   36.5740   -6.9345   24.5881 H   0  0  0  0  0  0
   35.0143   -6.2821   26.3524 H   0  0  0  0  0  0
   32.5990   -6.2905   25.9668 H   0  0  0  0  0  0
   31.6461   -6.9929   23.7972 H   0  0  0  0  0  0
   33.5555   -7.0476   19.2021 H   0  0  0  0  0  0
  1  2  1  0  0  0
  1 28  1  0  0  0
  1 29  1  0  0  0
  1 30  1  0  0  0
  2 27  1  0  0  0
  2  3  1  0  0  0
  3  4  1  0  0  0
  3  7  2  0  0  0
  4  5  2  0  0  0
  4  6  1  0  0  0
  6 48  1  0  0  0
  7  8  1  0  0  0
  7 22  1  0  0  0
  8  9  1  0  0  0
  8 31  1  0  0  0
  8 32  1  0  0  0
  9 10  1  0  0  0
  9 33  1  0  0  0
  9 34  1  0  0  0
 10 11  1  0  0  0
 10 35  1  0  0  0
 10 36  1  0  0  0
 11 12  1  0  0  0
 12 21  1  0  0  0
 12 13  2  0  0  0
 13 14  1  0  0  0
 13 37  1  0  0  0
 14 15  2  0  0  0
 14 38  1  0  0  0
 15 16  1  0  0  0
 15 39  1  0  0  0
 16 21  2  0  0  0
 16 17  1  0  0  0
 17 18  2  0  0  0
 17 40  1  0  0  0
 18 19  1  0  0  0
 18 41  1  0  0  0
 19 20  2  0  0  0
 19 42  1  0  0  0
 20 21  1  0  0  0
 20 43  1  0  0  0
 22 27  2  0  0  0
 22 23  1  0  0  0
 23 24  2  0  0  0
 23 44  1  0  0  0
 24 25  1  0  0  0
 24 45  1  0  0  0
 25 26  2  0  0  0
 25 46  1  0  0  0
 26 27  1  0  0  0
 26 47  1  0  0  0
M  END
> <s_m_source_file>
/home/user-home/yujie/0_PBCNetv2/data/FEP/MCL1/inp_ligprep.csv

> <i_m_source_file_index>
2

> <i_lp_mmshare_version>
51139

> <i_f3d_flags>
0

> <s_epik_input>
W2NIXTFbY0hdW2NIXVtjSF1jKGMxMiluKFtDSDNdKWMoQyg9TylbT0hdKWMyW0NIMl1bQ0gyXVtDSDJdT2MoW2NIXVtjSF1bY0hdMyljKGMzNClbY0hdW2NIXVtjSF1bY0hdNA==

> <s_epik_cmdline>
J2VwaWtfcHl0aG9uJywgJy1waHQnLCAnMi4wJywgJy1waCcsICc3LjQnLCAnLXRuJywgJzgnLCAnLW1hJywgJzIwMCcsICctaW1hZScsICc8aW5maWxlLm1hZT4nLCAnLW9tYWUnLCAnPG91dGZpbGUubWFlPic=

> <r_epik_Ionization_Penalty>
  2.3938

> <r_epik_Ionization_Penalty_Charging>
  0.0000

> <r_epik_Ionization_Penalty_Neutral>
  2.3938

> <r_epik_State_Penalty>
  2.5512

> <r_epik_Charging_Adjusted_Penalty>
2.55116

> <i_epik_Tot_Q>
0

> <i_epik_Tot_abs_Q>
0

> <s_lp_Force_Field>
OPLS3e

> <r_lp_Energy>
42.3601

> <b_lp_Chiralities_Consistent>
1

> <s_lp_Variant>
MCL1_57-2

> <s_i_glide_gridfile>
MCL1-001-gridgen

> <i_i_glide_lignum>
3

> <i_i_glide_rotatable_bonds>
7

> <r_i_docking_score>
-6.85357314038457

> <r_i_glide_ligand_efficiency>
-0.253836042236465

> <r_i_glide_ligand_efficiency_sa>
-0.761508125872794

> <r_i_glide_ligand_efficiency_ln>
-1.59539883709766

> <r_i_glide_gscore>
-9.40473314038457

> <r_i_glide_lipo>
-5.71576078851918

> <r_i_glide_hbond>
-0.16

> <r_i_glide_metal>
-0

> <r_i_glide_rewards>
-1.95707880923113

> <r_i_glide_evdw>
-37.6455955505371

> <r_i_glide_ecoul>
-2.8020806312561

> <r_i_glide_erotb>
0.741871724120427

> <r_i_glide_esite>
-0.0111733945394136

> <r_i_glide_emodel>
-66.9447697385362

> <r_i_glide_energy>
-40.4476761817932

> <r_i_glide_einternal>
8.80557346343994

> <i_i_glide_confnum>
166

> <i_i_glide_posenum>
245

> <r_i_glide_eff_state_penalty>
2.55116

$$$$
