MCL1_60
                    3D
 Schrodinger Suite 2020-3.
 43 45  0  0  1  0            999 V2000
   37.3657  -11.6306   28.4783 C   0  0  0  0  0  0
   38.3349  -10.7478   27.7017 C   0  0  0  0  0  0
   38.0405  -10.4183   26.3782 C   0  0  0  0  0  0
   38.9117   -9.6139   25.6331 C   0  0  0  0  0  0
   38.6811   -9.2440   24.3302 O   0  0  0  0  0  0
   37.8322  -10.0497   23.5274 C   0  0  0  0  0  0
   38.0233   -9.5960   22.0774 C   0  0  0  0  0  0
   37.5754   -8.1440   21.7965 C   0  0  0  0  0  0
   36.0725   -7.9371   21.9701 C   0  0  0  0  0  0
   35.0770   -8.2571   21.0338 C   0  0  0  0  0  0
   35.1849   -8.9296   19.7233 C   0  0  0  0  0  0
   36.2791   -9.4590   19.4333 O   0  0  0  0  0  0
   34.1851   -8.9633   18.9695 O   0  5  0  0  0  0
   33.4698   -7.7948   21.5732 S   0  0  0  0  0  0
   34.0902   -7.3123   23.1328 C   0  0  0  0  0  0
   33.3345   -6.8692   24.2281 C   0  0  0  0  0  0
   34.0047   -6.5583   25.4063 C   0  0  0  0  0  0
   35.3879   -6.6597   25.4915 C   0  0  0  0  0  0
   36.1456   -7.0706   24.3974 C   0  0  0  0  0  0
   35.5092   -7.4308   23.1914 C   0  0  0  0  0  0
   40.0766   -9.1346   26.2295 C   0  0  0  0  0  0
   40.3938   -9.4589   27.5498 C   0  0  0  0  0  0
   41.6737   -8.9059   28.1636 C   0  0  0  0  0  0
   39.5136  -10.2628   28.2888 C   0  0  0  0  0  0
   39.8776  -10.6561   29.9310 Cl  0  0  0  0  0  0
   36.4623  -11.8597   27.9090 H   0  0  0  0  0  0
   37.0621  -11.1364   29.4012 H   0  0  0  0  0  0
   37.8496  -12.5695   28.7538 H   0  0  0  0  0  0
   37.1247  -10.7827   25.9367 H   0  0  0  0  0  0
   38.1044  -11.1046   23.6162 H   0  0  0  0  0  0
   36.7892   -9.9513   23.8331 H   0  0  0  0  0  0
   39.0772   -9.7016   21.8164 H   0  0  0  0  0  0
   37.4857  -10.2841   21.4300 H   0  0  0  0  0  0
   38.1482   -7.4594   22.4247 H   0  0  0  0  0  0
   37.8753   -7.8744   20.7829 H   0  0  0  0  0  0
   32.2593   -6.7843   24.1661 H   0  0  0  0  0  0
   33.4429   -6.2289   26.2690 H   0  0  0  0  0  0
   35.8786   -6.4034   26.4191 H   0  0  0  0  0  0
   37.2184   -7.1349   24.4952 H   0  0  0  0  0  0
   40.7373   -8.5048   25.6524 H   0  0  0  0  0  0
   42.2285   -8.2725   27.4675 H   0  0  0  0  0  0
   41.4378   -8.3113   29.0469 H   0  0  0  0  0  0
   42.3264   -9.7193   28.4831 H   0  0  0  0  0  0
  1  2  1  0  0  0
  1 26  1  0  0  0
  1 27  1  0  0  0
  1 28  1  0  0  0
  2 24  1  0  0  0
  2  3  2  0  0  0
  3  4  1  0  0  0
  3 29  1  0  0  0
  4  5  1  0  0  0
  4 21  2  0  0  0
  5  6  1  0  0  0
  6  7  1  0  0  0
  6 30  1  0  0  0
  6 31  1  0  0  0
  7  8  1  0  0  0
  7 32  1  0  0  0
  7 33  1  0  0  0
  8  9  1  0  0  0
  8 34  1  0  0  0
  8 35  1  0  0  0
  9 20  1  0  0  0
  9 10  2  0  0  0
 10 11  1  0  0  0
 10 14  1  0  0  0
 11 12  2  0  0  0
 11 13  1  0  0  0
 14 15  1  0  0  0
 15 20  1  0  0  0
 15 16  2  0  0  0
 16 17  1  0  0  0
 16 36  1  0  0  0
 17 18  2  0  0  0
 17 37  1  0  0  0
 18 19  1  0  0  0
 18 38  1  0  0  0
 19 20  2  0  0  0
 19 39  1  0  0  0
 21 22  1  0  0  0
 21 40  1  0  0  0
 22 23  1  0  0  0
 22 24  2  0  0  0
 23 41  1  0  0  0
 23 42  1  0  0  0
 23 43  1  0  0  0
 24 25  1  0  0  0
M  CHG  1  13  -1
M  END
> <s_m_source_file>
/home/user-home/yujie/0_PBCNetv2/data/FEP/MCL1/inp_ligprep.csv

> <i_m_source_file_index>
24

> <i_lp_mmshare_version>
51139

> <i_f3d_flags>
0

> <s_epik_input>
Q2xjMWMoW0NIM10pW2NIXWMoW2NIXWMxW0NIM10pT1tDSDJdW0NIMl1bQ0gyXWMoYyhzMilDKD1PKVtPSF0pYyhjMjMpW2NIXVtjSF1bY0hdW2NIXTM=

> <s_epik_cmdline>
J2VwaWtfcHl0aG9uJywgJy1waHQnLCAnMi4wJywgJy1waCcsICc3LjQnLCAnLXRuJywgJzgnLCAnLW1hJywgJzIwMCcsICctaW1hZScsICc8aW5maWxlLm1hZT4nLCAnLW9tYWUnLCAnPG91dGZpbGUubWFlPic=

> <r_lp_tautomer_probability>
1

> <r_epik_Ionization_Penalty>
  0.0001

> <r_epik_Ionization_Penalty_Charging>
  0.0001

> <r_epik_Ionization_Penalty_Neutral>
  0.0000

> <r_epik_State_Penalty>
 -0.0000

> <r_epik_Charging_Adjusted_Penalty>
0.000126764

> <i_epik_Tot_Q>
-1

> <i_epik_Tot_abs_Q>
1

> <s_lp_Force_Field>
OPLS3e

> <r_lp_Energy>
31.2963

> <b_lp_Chiralities_Consistent>
1

> <s_lp_Variant>
MCL1_60-1

> <s_i_glide_gridfile>
MCL1-001-gridgen

> <i_i_glide_lignum>
25

> <i_i_glide_rotatable_bonds>
6

> <r_i_docking_score>
-9.77733751450172

> <r_i_glide_ligand_efficiency>
-0.391093500580069

> <r_i_glide_ligand_efficiency_sa>
-1.14356433176889

> <r_i_glide_ligand_efficiency_ln>
-2.31752199409831

> <r_i_glide_gscore>
-9.77733751450172

> <r_i_glide_lipo>
-5.85129180938917

> <r_i_glide_hbond>
-0.2

> <r_i_glide_metal>
-0

> <r_i_glide_rewards>
-1.70714138746556

> <r_i_glide_evdw>
-45.1579132080078

> <r_i_glide_ecoul>
-2.84978342056274

> <r_i_glide_erotb>
0.691430156709042

> <r_i_glide_esite>
-0.0249713008712326

> <r_i_glide_emodel>
-84.8387338379088

> <r_i_glide_energy>
-48.0076966285706

> <r_i_glide_einternal>
1.57563853263855

> <i_i_glide_confnum>
195

> <i_i_glide_posenum>
49

> <r_i_glide_eff_state_penalty>
-0

$$$$
