MCL1_37
                    3D
 Schrodinger Suite 2020-3.
 44 46  0  0  1  0            999 V2000
   37.2891  -11.6612   28.2688 C   0  0  0  0  0  0
   38.2609  -10.7673   27.5103 C   0  0  0  0  0  0
   37.9928  -10.4554   26.1736 C   0  0  0  0  0  0
   38.8671   -9.6472   25.4345 C   0  0  0  0  0  0
   38.6789   -9.3069   24.1114 O   0  0  0  0  0  0
   37.7933  -10.0876   23.3139 C   0  0  0  0  0  0
   37.9721   -9.6982   21.8333 C   0  0  0  0  0  0
   37.5826   -8.2480   21.4915 C   0  0  0  0  0  0
   36.1083   -7.9788   21.7322 C   0  0  0  0  0  0
   35.0212   -8.2351   20.8888 C   0  0  0  0  0  0
   34.8751   -8.8514   19.5497 C   0  0  0  0  0  0
   35.8747   -9.4183   19.0479 O   0  0  0  0  0  0
   33.7477   -8.8014   19.0050 O   0  5  0  0  0  0
   33.8689   -7.8227   21.5204 N   0  0  0  0  0  0
   34.1367   -7.3702   22.7918 C   0  0  0  0  0  0
   33.2869   -6.9124   23.8059 C   0  0  0  0  0  0
   33.8802   -6.5666   25.0210 C   0  0  0  0  0  0
   35.2558   -6.6533   25.2162 C   0  0  0  0  0  0
   36.1021   -7.0774   24.1933 C   0  0  0  0  0  0
   35.5497   -7.4603   22.9579 C   0  0  0  0  0  0
   40.0081   -9.1440   26.0578 C   0  0  0  0  0  0
   40.3041   -9.4595   27.3883 C   0  0  0  0  0  0
   41.5655   -8.8844   28.0182 C   0  0  0  0  0  0
   39.4202  -10.2654   28.1245 C   0  0  0  0  0  0
   39.7468  -10.6272   29.7908 Cl  0  0  0  0  0  0
   32.9719   -7.9114   21.0632 H   0  0  0  0  0  0
   36.4645  -12.0046   27.6431 H   0  0  0  0  0  0
   36.8720  -11.1276   29.1231 H   0  0  0  0  0  0
   37.8076  -12.5410   28.6523 H   0  0  0  0  0  0
   37.0967  -10.8459   25.7156 H   0  0  0  0  0  0
   38.0192  -11.1485   23.4335 H   0  0  0  0  0  0
   36.7601   -9.9416   23.6310 H   0  0  0  0  0  0
   39.0129   -9.8573   21.5483 H   0  0  0  0  0  0
   37.3814  -10.3725   21.2140 H   0  0  0  0  0  0
   38.2005   -7.5653   22.0767 H   0  0  0  0  0  0
   37.8395   -8.0429   20.4511 H   0  0  0  0  0  0
   32.2176   -6.8456   23.6699 H   0  0  0  0  0  0
   33.2572   -6.2221   25.8343 H   0  0  0  0  0  0
   35.6765   -6.3728   26.1721 H   0  0  0  0  0  0
   37.1681   -7.1321   24.3594 H   0  0  0  0  0  0
   40.6776   -8.5165   25.4873 H   0  0  0  0  0  0
   42.1253   -8.2540   27.3260 H   0  0  0  0  0  0
   41.3087   -8.2809   28.8895 H   0  0  0  0  0  0
   42.2224   -9.6856   28.3559 H   0  0  0  0  0  0
  1  2  1  0  0  0
  1 27  1  0  0  0
  1 28  1  0  0  0
  1 29  1  0  0  0
  2 24  1  0  0  0
  2  3  2  0  0  0
  3  4  1  0  0  0
  3 30  1  0  0  0
  4  5  1  0  0  0
  4 21  2  0  0  0
  5  6  1  0  0  0
  6  7  1  0  0  0
  6 31  1  0  0  0
  6 32  1  0  0  0
  7  8  1  0  0  0
  7 33  1  0  0  0
  7 34  1  0  0  0
  8  9  1  0  0  0
  8 35  1  0  0  0
  8 36  1  0  0  0
  9 20  1  0  0  0
  9 10  2  0  0  0
 10 11  1  0  0  0
 10 14  1  0  0  0
 11 12  2  0  0  0
 11 13  1  0  0  0
 14 26  1  0  0  0
 14 15  1  0  0  0
 15 20  1  0  0  0
 15 16  2  0  0  0
 16 17  1  0  0  0
 16 37  1  0  0  0
 17 18  2  0  0  0
 17 38  1  0  0  0
 18 19  1  0  0  0
 18 39  1  0  0  0
 19 20  2  0  0  0
 19 40  1  0  0  0
 21 22  1  0  0  0
 21 41  1  0  0  0
 22 23  1  0  0  0
 22 24  2  0  0  0
 23 42  1  0  0  0
 23 43  1  0  0  0
 23 44  1  0  0  0
 24 25  1  0  0  0
M  CHG  1  13  -1
M  END
> <s_m_source_file>
/home/user-home/yujie/0_PBCNetv2/data/FEP/MCL1/inp_ligprep.csv

> <i_m_source_file_index>
23

> <i_lp_mmshare_version>
51139

> <i_f3d_flags>
0

> <s_epik_input>
Q2xjMWMoW0NIM10pW2NIXWMoW2NIXWMxW0NIM10pT1tDSDJdW0NIMl1bQ0gyXWMoYyhbbkhdMilDKD1PKVtPSF0pYyhjMjMpW2NIXVtjSF1bY0hdW2NIXTM=

> <s_epik_cmdline>
J2VwaWtfcHl0aG9uJywgJy1waHQnLCAnMi4wJywgJy1waCcsICc3LjQnLCAnLXRuJywgJzgnLCAnLW1hJywgJzIwMCcsICctaW1hZScsICc8aW5maWxlLm1hZT4nLCAnLW9tYWUnLCAnPG91dGZpbGUubWFlPic=

> <r_lp_tautomer_probability>
1

> <r_epik_Ionization_Penalty>
  0.0005

> <r_epik_Ionization_Penalty_Charging>
  0.0005

> <r_epik_Ionization_Penalty_Neutral>
  0.0000

> <r_epik_State_Penalty>
  0.0003

> <r_epik_Charging_Adjusted_Penalty>
0.000842282

> <i_epik_Tot_Q>
-1

> <i_epik_Tot_abs_Q>
1

> <s_lp_Force_Field>
OPLS3e

> <r_lp_Energy>
29.5316

> <b_lp_Chiralities_Consistent>
1

> <s_lp_Variant>
MCL1_37-1

> <s_i_glide_gridfile>
MCL1-001-gridgen

> <i_i_glide_lignum>
24

> <i_i_glide_rotatable_bonds>
6

> <r_i_docking_score>
-9.98776178539054

> <r_i_glide_ligand_efficiency>
-0.399510471415622

> <r_i_glide_ligand_efficiency_sa>
-1.16817570376766

> <r_i_glide_ligand_efficiency_ln>
-2.36739885220551

> <r_i_glide_gscore>
-9.98808532339054

> <r_i_glide_lipo>
-5.6779577660139

> <r_i_glide_hbond>
-0.179463289893423

> <r_i_glide_metal>
-0

> <r_i_glide_rewards>
-1.8489108845516

> <r_i_glide_evdw>
-42.7249755859375

> <r_i_glide_ecoul>
-5.76686382293701

> <r_i_glide_erotb>
0.751512930677006

> <r_i_glide_esite>
-0.0319879608712006

> <r_i_glide_emodel>
-85.5749911577713

> <r_i_glide_energy>
-48.4918394088745

> <r_i_glide_einternal>
2.05473256111145

> <i_i_glide_confnum>
235

> <i_i_glide_posenum>
208

> <r_i_glide_eff_state_penalty>
0.000323538

$$$$
