MCL1_51
                    3D
 Schrodinger Suite 2020-3.
 44 47  0  0  1  0            999 V2000
   34.2584   -9.0583   18.6346 O   0  0  0  0  0  0
   35.1352   -8.9580   19.5226 C   0  0  0  0  0  0
   36.2778   -9.4597   19.4334 O   0  5  0  0  0  0
   34.7865   -8.2601   20.7776 C   0  0  0  0  0  0
   33.4569   -8.0150   21.0048 N   0  0  0  0  0  0
   33.2698   -7.4887   22.2586 C   0  0  0  0  0  0
   32.0876   -7.1416   22.9199 C   0  0  0  0  0  0
   32.2096   -6.6601   24.2211 C   0  0  0  0  0  0
   33.4476   -6.5167   24.8342 C   0  0  0  0  0  0
   34.6284   -6.8523   24.1747 C   0  0  0  0  0  0
   36.1115   -6.6605   25.0329 Cl  0  0  0  0  0  0
   34.5664   -7.3557   22.8530 C   0  0  0  0  0  0
   35.5353   -7.8176   21.8721 C   0  0  0  0  0  0
   37.0512   -7.8598   22.0090 C   0  0  0  0  0  0
   37.6033   -9.2986   22.0555 C   0  0  0  0  0  0
   38.4153   -9.6436   23.2968 C   0  0  0  0  0  0
   37.7505   -9.4000   24.5259 O   0  0  0  0  0  0
   38.4904   -9.6211   25.6733 C   0  0  0  0  0  0
   39.8130   -9.1751   25.8278 C   0  0  0  0  0  0
   40.5211   -9.4060   27.0011 C   0  0  0  0  0  0
   39.9329  -10.0946   28.0553 C   0  0  0  0  0  0
   38.6077  -10.5737   27.9447 C   0  0  0  0  0  0
   37.9945  -11.2945   28.9985 C   0  0  0  0  0  0
   36.6797  -11.7249   28.8716 C   0  0  0  0  0  0
   35.9530  -11.4596   27.7170 C   0  0  0  0  0  0
   36.5292  -10.7709   26.6593 C   0  0  0  0  0  0
   37.8681  -10.3133   26.7468 C   0  0  0  0  0  0
   32.7595   -8.2559   20.3129 H   0  0  0  0  0  0
   31.1181   -7.2551   22.4576 H   0  0  0  0  0  0
   31.3187   -6.3954   24.7717 H   0  0  0  0  0  0
   33.4935   -6.1408   25.8470 H   0  0  0  0  0  0
   37.4922   -7.3467   21.1518 H   0  0  0  0  0  0
   37.4100   -7.2871   22.8617 H   0  0  0  0  0  0
   36.8188  -10.0362   21.9311 H   0  0  0  0  0  0
   38.2461   -9.4499   21.1880 H   0  0  0  0  0  0
   38.6795  -10.6964   23.2569 H   0  0  0  0  0  0
   39.3186   -9.0597   23.2296 H   0  0  0  0  0  0
   40.3049   -8.6326   25.0347 H   0  0  0  0  0  0
   41.5349   -9.0446   27.0948 H   0  0  0  0  0  0
   40.4915  -10.2630   28.9645 H   0  0  0  0  0  0
   38.5466  -11.5033   29.9035 H   0  0  0  0  0  0
   36.2111  -12.2586   29.6835 H   0  0  0  0  0  0
   34.9306  -11.7963   27.6371 H   0  0  0  0  0  0
   35.9551  -10.5788   25.7649 H   0  0  0  0  0  0
  1  2  2  0  0  0
  2  3  1  0  0  0
  2  4  1  0  0  0
  4 13  2  0  0  0
  4  5  1  0  0  0
  5 28  1  0  0  0
  5  6  1  0  0  0
  6 12  2  0  0  0
  6  7  1  0  0  0
  7  8  2  0  0  0
  7 29  1  0  0  0
  8  9  1  0  0  0
  8 30  1  0  0  0
  9 10  2  0  0  0
  9 31  1  0  0  0
 10 11  1  0  0  0
 10 12  1  0  0  0
 12 13  1  0  0  0
 13 14  1  0  0  0
 14 15  1  0  0  0
 14 32  1  0  0  0
 14 33  1  0  0  0
 15 16  1  0  0  0
 15 34  1  0  0  0
 15 35  1  0  0  0
 16 17  1  0  0  0
 16 36  1  0  0  0
 16 37  1  0  0  0
 17 18  1  0  0  0
 18 27  1  0  0  0
 18 19  2  0  0  0
 19 20  1  0  0  0
 19 38  1  0  0  0
 20 21  2  0  0  0
 20 39  1  0  0  0
 21 22  1  0  0  0
 21 40  1  0  0  0
 22 27  2  0  0  0
 22 23  1  0  0  0
 23 24  2  0  0  0
 23 41  1  0  0  0
 24 25  1  0  0  0
 24 42  1  0  0  0
 25 26  2  0  0  0
 25 43  1  0  0  0
 26 27  1  0  0  0
 26 44  1  0  0  0
M  CHG  1   3  -1
M  END
> <s_m_source_file>
/home/user-home/yujie/0_PBCNetv2/data/FEP/MCL1/inp_ligprep.csv

> <i_m_source_file_index>
20

> <i_lp_mmshare_version>
51139

> <i_f3d_flags>
0

> <s_epik_input>
W2NIXTFbY0hdW2NIXWMoQ2wpYyhjMTIpYyhjKFtuSF0yKUMoPU8pW09IXSlbQ0gyXVtDSDJdW0NIMl1PYyhbY0hdW2NIXVtjSF0zKWMoYzM0KVtjSF1bY0hdW2NIXVtjSF00

> <s_epik_cmdline>
J2VwaWtfcHl0aG9uJywgJy1waHQnLCAnMi4wJywgJy1waCcsICc3LjQnLCAnLXRuJywgJzgnLCAnLW1hJywgJzIwMCcsICctaW1hZScsICc8aW5maWxlLm1hZT4nLCAnLW9tYWUnLCAnPG91dGZpbGUubWFlPic=

> <r_lp_tautomer_probability>
1

> <r_epik_Ionization_Penalty>
  0.0002

> <r_epik_Ionization_Penalty_Charging>
  0.0002

> <r_epik_Ionization_Penalty_Neutral>
  0.0000

> <r_epik_State_Penalty>
 -0.0000

> <r_epik_Charging_Adjusted_Penalty>
0.000222845

> <i_epik_Tot_Q>
-1

> <i_epik_Tot_abs_Q>
1

> <s_lp_Force_Field>
OPLS3e

> <r_lp_Energy>
42.9485

> <b_lp_Chiralities_Consistent>
1

> <s_lp_Variant>
MCL1_51-1

> <s_i_glide_gridfile>
MCL1-001-gridgen

> <i_i_glide_lignum>
21

> <i_i_glide_rotatable_bonds>
6

> <r_i_docking_score>
-9.20546104470218

> <r_i_glide_ligand_efficiency>
-0.340943001655636

> <r_i_glide_ligand_efficiency_sa>
-1.02282900384322

> <r_i_glide_ligand_efficiency_ln>
-2.14287956732035

> <r_i_glide_gscore>
-9.20546104470218

> <r_i_glide_lipo>
-5.53846302579166

> <r_i_glide_hbond>
-0.284348610434862

> <r_i_glide_metal>
-0

> <r_i_glide_rewards>
-1.72305193663981

> <r_i_glide_evdw>
-37.6723175048828

> <r_i_glide_ecoul>
-1.80979037284851

> <r_i_glide_erotb>
0.540262106106263

> <r_i_glide_esite>
-0.0447751467706951

> <r_i_glide_emodel>
-72.4768197549289

> <r_i_glide_energy>
-39.4821078777313

> <r_i_glide_einternal>
6.56400966644287

> <i_i_glide_confnum>
11

> <i_i_glide_posenum>
56

> <r_i_glide_eff_state_penalty>
-0

$$$$
