MCL1_43
                    3D
 Schrodinger Suite 2020-3.
 44 47  0  0  1  0            999 V2000
   35.6379   -9.4597   19.0525 O   0  0  0  0  0  0
   34.6858   -8.8198   19.5589 C   0  0  0  0  0  0
   33.5620   -8.6860   19.0219 O   0  5  0  0  0  0
   34.8813   -8.2172   20.8977 C   0  0  0  0  0  0
   33.7540   -7.7915   21.5649 N   0  0  0  0  0  0
   34.0657   -7.3464   22.8291 C   0  0  0  0  0  0
   33.2538   -6.8781   23.8695 C   0  0  0  0  0  0
   33.8883   -6.5463   25.0673 C   0  0  0  0  0  0
   35.2673   -6.6595   25.2234 C   0  0  0  0  0  0
   36.0762   -7.0954   24.1751 C   0  0  0  0  0  0
   35.4814   -7.4597   22.9542 C   0  0  0  0  0  0
   35.9958   -7.9786   21.7094 C   0  0  0  0  0  0
   37.4582   -8.2635   21.4271 C   0  0  0  0  0  0
   37.8399   -9.7250   21.7221 C   0  0  0  0  0  0
   37.6878  -10.1590   23.1921 C   0  0  0  0  0  0
   38.6457   -9.4413   23.9548 O   0  0  0  0  0  0
   38.8260   -9.7479   25.2839 C   0  0  0  0  0  0
   37.9460  -10.5164   26.0566 C   0  0  0  0  0  0
   38.2093  -10.7627   27.4034 C   0  0  0  0  0  0
   39.3715  -10.2308   28.0160 C   0  0  0  0  0  0
   39.6331  -10.3906   29.4000 C   0  0  0  0  0  0
   40.7442   -9.7761   29.9729 C   0  0  0  0  0  0
   41.6280   -9.0360   29.1965 C   0  0  0  0  0  0
   41.4184   -8.8837   27.8309 C   0  0  0  0  0  0
   40.2787   -9.4595   27.2249 C   0  0  0  0  0  0
   39.9766   -9.2264   25.8646 C   0  0  0  0  0  0
   32.8425   -7.8607   21.1309 H   0  0  0  0  0  0
   32.1829   -6.7912   23.7626 H   0  0  0  0  0  0
   33.2955   -6.1917   25.8989 H   0  0  0  0  0  0
   35.7190   -6.3905   26.1687 H   0  0  0  0  0  0
   37.1452   -7.1728   24.3125 H   0  0  0  0  0  0
   37.6928   -8.0352   20.3856 H   0  0  0  0  0  0
   38.0984   -7.6027   22.0125 H   0  0  0  0  0  0
   37.2423  -10.3775   21.0873 H   0  0  0  0  0  0
   38.8804   -9.8691   21.4333 H   0  0  0  0  0  0
   36.6793   -9.9659   23.5566 H   0  0  0  0  0  0
   37.8687  -11.2316   23.2825 H   0  0  0  0  0  0
   37.0429  -10.9234   25.6262 H   0  0  0  0  0  0
   37.5142  -11.3407   27.9955 H   0  0  0  0  0  0
   38.9480  -10.9565   30.0148 H   0  0  0  0  0  0
   40.9236   -9.8590   31.0330 H   0  0  0  0  0  0
   42.4780   -8.5604   29.6606 H   0  0  0  0  0  0
   42.0984   -8.2869   27.2387 H   0  0  0  0  0  0
   40.6525   -8.6306   25.2699 H   0  0  0  0  0  0
  1  2  2  0  0  0
  2  3  1  0  0  0
  2  4  1  0  0  0
  4 12  2  0  0  0
  4  5  1  0  0  0
  5 27  1  0  0  0
  5  6  1  0  0  0
  6 11  2  0  0  0
  6  7  1  0  0  0
  7  8  2  0  0  0
  7 28  1  0  0  0
  8  9  1  0  0  0
  8 29  1  0  0  0
  9 10  2  0  0  0
  9 30  1  0  0  0
 10 11  1  0  0  0
 10 31  1  0  0  0
 11 12  1  0  0  0
 12 13  1  0  0  0
 13 14  1  0  0  0
 13 32  1  0  0  0
 13 33  1  0  0  0
 14 15  1  0  0  0
 14 34  1  0  0  0
 14 35  1  0  0  0
 15 16  1  0  0  0
 15 36  1  0  0  0
 15 37  1  0  0  0
 16 17  1  0  0  0
 17 26  1  0  0  0
 17 18  2  0  0  0
 18 19  1  0  0  0
 18 38  1  0  0  0
 19 20  2  0  0  0
 19 39  1  0  0  0
 20 25  1  0  0  0
 20 21  1  0  0  0
 21 22  2  0  0  0
 21 40  1  0  0  0
 22 23  1  0  0  0
 22 41  1  0  0  0
 23 24  2  0  0  0
 23 42  1  0  0  0
 24 25  1  0  0  0
 24 43  1  0  0  0
 25 26  2  0  0  0
 26 44  1  0  0  0
M  CHG  1   3  -1
M  END
> <s_m_source_file>
/home/user-home/yujie/0_PBCNetv2/data/FEP/MCL1/inp_ligprep.csv

> <i_m_source_file_index>
25

> <i_lp_mmshare_version>
51139

> <i_f3d_flags>
0

> <s_epik_input>
W2NIXTFbY0hdW2NIXVtjSF1jKGMxMiljKGMoW25IXTIpQyg9TylbT0hdKVtDSDJdW0NIMl1bQ0gyXU9jKFtjSF1bY0hdMylbY0hdYyhjMzQpW2NIXVtjSF1bY0hdW2NIXTQ=

> <s_epik_cmdline>
J2VwaWtfcHl0aG9uJywgJy1waHQnLCAnMi4wJywgJy1waCcsICc3LjQnLCAnLXRuJywgJzgnLCAnLW1hJywgJzIwMCcsICctaW1hZScsICc8aW5maWxlLm1hZT4nLCAnLW9tYWUnLCAnPG91dGZpbGUubWFlPic=

> <r_epik_Ionization_Penalty>
  0.0006

> <r_epik_Ionization_Penalty_Charging>
  0.0006

> <r_epik_Ionization_Penalty_Neutral>
  0.0000

> <r_epik_State_Penalty>
  0.0004

> <r_epik_Charging_Adjusted_Penalty>
0.000921483

> <i_epik_Tot_Q>
-1

> <i_epik_Tot_abs_Q>
1

> <s_lp_Force_Field>
OPLS3e

> <r_lp_Energy>
39.8789

> <b_lp_Chiralities_Consistent>
1

> <s_lp_Variant>
MCL1_43-1

> <s_i_glide_gridfile>
MCL1-001-gridgen

> <i_i_glide_lignum>
26

> <i_i_glide_rotatable_bonds>
6

> <r_i_docking_score>
-10.4083208704739

> <r_i_glide_ligand_efficiency>
-0.400320033479767

> <r_i_glide_ligand_efficiency_sa>
-1.18594652400054

> <r_i_glide_ligand_efficiency_ln>
-2.44436000394443

> <r_i_glide_gscore>
-10.4086761164739

> <r_i_glide_lipo>
-5.96425743809652

> <r_i_glide_hbond>
-0.193498695434343

> <r_i_glide_metal>
-0

> <r_i_glide_rewards>
-1.95251083471356

> <r_i_glide_evdw>
-42.562801361084

> <r_i_glide_ecoul>
-5.23337602615356

> <r_i_glide_erotb>
0.640363311436548

> <r_i_glide_esite>
-0.0256259876888276

> <r_i_glide_emodel>
-82.9718458366767

> <r_i_glide_energy>
-47.7961773872375

> <r_i_glide_einternal>
6.7011981010437

> <i_i_glide_confnum>
15

> <i_i_glide_posenum>
272

> <r_i_glide_eff_state_penalty>
0.000355246

$$$$
