MCL1_33
                    3D
 Schrodinger Suite 2020-3.
 38 40  0  0  1  0            999 V2000
   33.7844   -8.7411   19.1013 O   0  0  0  0  0  0
   34.8913   -8.8372   19.6847 C   0  0  0  0  0  0
   35.8782   -9.4585   19.2310 O   0  5  0  0  0  0
   35.0271   -8.2036   21.0130 C   0  0  0  0  0  0
   33.8739   -7.7680   21.6259 N   0  0  0  0  0  0
   34.1373   -7.3212   22.9000 C   0  0  0  0  0  0
   33.2853   -6.8488   23.9053 C   0  0  0  0  0  0
   33.8702   -6.5275   25.1300 C   0  0  0  0  0  0
   35.2399   -6.6495   25.3439 C   0  0  0  0  0  0
   36.0919   -7.0781   24.3277 C   0  0  0  0  0  0
   35.5473   -7.4397   23.0819 C   0  0  0  0  0  0
   36.1118   -7.9528   21.8590 C   0  0  0  0  0  0
   37.5838   -8.2307   21.6174 C   0  0  0  0  0  0
   37.9544   -9.6933   21.9249 C   0  0  0  0  0  0
   37.7773  -10.1095   23.3965 C   0  0  0  0  0  0
   38.6779   -9.3435   24.1860 O   0  0  0  0  0  0
   38.8598   -9.6699   25.5115 C   0  0  0  0  0  0
   37.9697  -10.4621   26.2528 C   0  0  0  0  0  0
   38.2434  -10.7530   27.5872 C   0  0  0  0  0  0
   39.4020  -10.2593   28.1822 C   0  0  0  0  0  0
   39.7343  -10.6260   29.8333 Cl  0  0  0  0  0  0
   40.2861   -9.4619   27.4573 C   0  0  0  0  0  0
   40.0044   -9.1588   26.1262 C   0  0  0  0  0  0
   32.9809   -7.8424   21.1597 H   0  0  0  0  0  0
   32.2189   -6.7573   23.7550 H   0  0  0  0  0  0
   33.2442   -6.1765   25.9366 H   0  0  0  0  0  0
   35.6538   -6.3905   26.3074 H   0  0  0  0  0  0
   37.1555   -7.1570   24.5056 H   0  0  0  0  0  0
   38.2069   -7.5662   22.2186 H   0  0  0  0  0  0
   37.8462   -8.0050   20.5823 H   0  0  0  0  0  0
   38.9921   -9.8600   21.6323 H   0  0  0  0  0  0
   37.3551  -10.3485   21.2945 H   0  0  0  0  0  0
   37.9958  -11.1744   23.4964 H   0  0  0  0  0  0
   36.7480   -9.9588   23.7237 H   0  0  0  0  0  0
   37.0674  -10.8557   25.8108 H   0  0  0  0  0  0
   37.5577  -11.3635   28.1584 H   0  0  0  0  0  0
   41.1787   -9.0702   27.9233 H   0  0  0  0  0  0
   40.6834   -8.5376   25.5598 H   0  0  0  0  0  0
  1  2  2  0  0  0
  2  3  1  0  0  0
  2  4  1  0  0  0
  4 12  2  0  0  0
  4  5  1  0  0  0
  5 24  1  0  0  0
  5  6  1  0  0  0
  6 11  2  0  0  0
  6  7  1  0  0  0
  7  8  2  0  0  0
  7 25  1  0  0  0
  8  9  1  0  0  0
  8 26  1  0  0  0
  9 10  2  0  0  0
  9 27  1  0  0  0
 10 11  1  0  0  0
 10 28  1  0  0  0
 11 12  1  0  0  0
 12 13  1  0  0  0
 13 14  1  0  0  0
 13 29  1  0  0  0
 13 30  1  0  0  0
 14 15  1  0  0  0
 14 31  1  0  0  0
 14 32  1  0  0  0
 15 16  1  0  0  0
 15 33  1  0  0  0
 15 34  1  0  0  0
 16 17  1  0  0  0
 17 23  1  0  0  0
 17 18  2  0  0  0
 18 19  1  0  0  0
 18 35  1  0  0  0
 19 20  2  0  0  0
 19 36  1  0  0  0
 20 21  1  0  0  0
 20 22  1  0  0  0
 22 23  2  0  0  0
 22 37  1  0  0  0
 23 38  1  0  0  0
M  CHG  1   3  -1
M  END
> <s_m_source_file>
/home/user-home/yujie/0_PBCNetv2/data/FEP/MCL1/inp_ligprep.csv

> <i_m_source_file_index>
8

> <i_lp_mmshare_version>
51139

> <i_f3d_flags>
0

> <s_epik_input>
W2NIXTFbY0hdW2NIXVtjSF1jKGMxMiljKGMoW25IXTIpQyg9TylbT0hdKVtDSDJdW0NIMl1bQ0gyXU9jM1tjSF1bY0hdYyhDbClbY0hdW2NIXTM=

> <s_epik_cmdline>
J2VwaWtfcHl0aG9uJywgJy1waHQnLCAnMi4wJywgJy1waCcsICc3LjQnLCAnLXRuJywgJzgnLCAnLW1hJywgJzIwMCcsICctaW1hZScsICc8aW5maWxlLm1hZT4nLCAnLW9tYWUnLCAnPG91dGZpbGUubWFlPic=

> <r_lp_tautomer_probability>
1

> <r_epik_Ionization_Penalty>
  0.0005

> <r_epik_Ionization_Penalty_Charging>
  0.0005

> <r_epik_Ionization_Penalty_Neutral>
  0.0000

> <r_epik_State_Penalty>
  0.0003

> <r_epik_Charging_Adjusted_Penalty>
0.000842282

> <i_epik_Tot_Q>
-1

> <i_epik_Tot_abs_Q>
1

> <s_lp_Force_Field>
OPLS3e

> <r_lp_Energy>
29.7336

> <b_lp_Chiralities_Consistent>
1

> <s_lp_Variant>
MCL1_33-1

> <s_i_glide_gridfile>
MCL1-001-gridgen

> <i_i_glide_lignum>
9

> <i_i_glide_rotatable_bonds>
6

> <r_i_docking_score>
-9.07213794535047

> <r_i_glide_ligand_efficiency>
-0.394440780232629

> <r_i_glide_ligand_efficiency_sa>
-1.12173710923806

> <r_i_glide_ligand_efficiency_ln>
-2.19372521678456

> <r_i_glide_gscore>
-9.07246148335047

> <r_i_glide_lipo>
-5.05070119345388

> <r_i_glide_hbond>
-0.2

> <r_i_glide_metal>
-0

> <r_i_glide_rewards>
-1.87977520018897

> <r_i_glide_evdw>
-38.1785583496094

> <r_i_glide_ecoul>
-4.71032047271729

> <r_i_glide_erotb>
0.695202197979963

> <r_i_glide_esite>
-0.0217112992995283

> <r_i_glide_emodel>
-73.9068405260009

> <r_i_glide_energy>
-42.8888788223267

> <r_i_glide_einternal>
1.76523232460022

> <i_i_glide_confnum>
24

> <i_i_glide_posenum>
81

> <r_i_glide_eff_state_penalty>
0.000323538

$$$$
