MCL1_41
                    3D
 Schrodinger Suite 2020-3.
 49 52  0  0  1  0            999 V2000
   32.5375   -9.9862   19.0679 O   0  0  0  0  0  0
   33.6414   -9.4495   19.3209 C   0  0  0  0  0  0
   34.6790   -9.5643   18.6333 O   0  5  0  0  0  0
   33.7588   -8.6465   20.5456 C   0  0  0  0  0  0
   32.6839   -8.6320   21.4049 N   0  0  0  0  0  0
   32.9763   -7.9039   22.5338 C   0  0  0  0  0  0
   32.2192   -7.6517   23.6840 C   0  0  0  0  0  0
   32.8291   -6.9035   24.6909 C   0  0  0  0  0  0
   34.1280   -6.4229   24.5607 C   0  0  0  0  0  0
   34.8708   -6.6596   23.4051 C   0  0  0  0  0  0
   34.3062   -7.4137   22.3606 C   0  0  0  0  0  0
   34.7738   -7.8397   21.0587 C   0  0  0  0  0  0
   36.0968   -7.4426   20.4106 C   0  0  0  0  0  0
   37.1903   -8.5234   20.2932 C   0  0  0  0  0  0
   37.4484   -9.3080   21.5808 C   0  0  0  0  0  0
   37.4464   -8.4251   22.7023 O   0  0  0  0  0  0
   37.7207   -9.0014   23.9155 C   0  0  0  0  0  0
   37.0867  -10.1523   24.3750 C   0  0  0  0  0  0
   37.4793  -10.7631   25.5534 C   0  0  0  0  0  0
   38.5477  -10.2490   26.2732 C   0  0  0  0  0  0
   38.9341  -10.9591   27.3897 O   0  0  0  0  0  0
   39.6649  -10.3583   28.3745 C   0  0  0  0  0  0
   39.0790  -10.2598   29.6262 C   0  0  0  0  0  0
   39.7367   -9.5798   30.6333 C   0  0  0  0  0  0
   41.0021   -9.0597   30.3942 C   0  0  0  0  0  0
   41.6199   -9.1903   29.1580 C   0  0  0  0  0  0
   40.9511   -9.8597   28.1454 C   0  0  0  0  0  0
   39.1496   -9.0597   25.8333 C   0  0  0  0  0  0
   38.6778   -8.4042   24.7122 C   0  0  0  0  0  0
   31.8386   -9.1406   21.1842 H   0  0  0  0  0  0
   31.2140   -8.0286   23.8014 H   0  0  0  0  0  0
   32.2828   -6.6957   25.6001 H   0  0  0  0  0  0
   34.5686   -5.8595   25.3704 H   0  0  0  0  0  0
   35.8786   -6.2819   23.3287 H   0  0  0  0  0  0
   35.9212   -6.9908   19.4335 H   0  0  0  0  0  0
   36.5351   -6.6597   21.0114 H   0  0  0  0  0  0
   36.9637   -9.2226   19.4909 H   0  0  0  0  0  0
   38.1185   -8.0369   19.9909 H   0  0  0  0  0  0
   36.6792  -10.0674   21.6615 H   0  0  0  0  0  0
   38.4023   -9.8344   21.5084 H   0  0  0  0  0  0
   36.2807  -10.5827   23.8333 H   0  0  0  0  0  0
   36.9751  -11.6565   25.8911 H   0  0  0  0  0  0
   38.0924  -10.6647   29.7967 H   0  0  0  0  0  0
   39.2645   -9.4575   31.5966 H   0  0  0  0  0  0
   41.4790   -8.5034   31.1822 H   0  0  0  0  0  0
   42.6028   -8.7778   28.9881 H   0  0  0  0  0  0
   41.4261   -9.9812   27.1829 H   0  0  0  0  0  0
   39.9406   -8.5638   26.3657 H   0  0  0  0  0  0
   39.0790   -7.4391   24.4549 H   0  0  0  0  0  0
  1  2  2  0  0  0
  2  3  1  0  0  0
  2  4  1  0  0  0
  4 12  2  0  0  0
  4  5  1  0  0  0
  5 30  1  0  0  0
  5  6  1  0  0  0
  6 11  2  0  0  0
  6  7  1  0  0  0
  7  8  2  0  0  0
  7 31  1  0  0  0
  8  9  1  0  0  0
  8 32  1  0  0  0
  9 10  2  0  0  0
  9 33  1  0  0  0
 10 11  1  0  0  0
 10 34  1  0  0  0
 11 12  1  0  0  0
 12 13  1  0  0  0
 13 14  1  0  0  0
 13 35  1  0  0  0
 13 36  1  0  0  0
 14 15  1  0  0  0
 14 37  1  0  0  0
 14 38  1  0  0  0
 15 16  1  0  0  0
 15 39  1  0  0  0
 15 40  1  0  0  0
 16 17  1  0  0  0
 17 29  1  0  0  0
 17 18  2  0  0  0
 18 19  1  0  0  0
 18 41  1  0  0  0
 19 20  2  0  0  0
 19 42  1  0  0  0
 20 21  1  0  0  0
 20 28  1  0  0  0
 21 22  1  0  0  0
 22 27  1  0  0  0
 22 23  2  0  0  0
 23 24  1  0  0  0
 23 43  1  0  0  0
 24 25  2  0  0  0
 24 44  1  0  0  0
 25 26  1  0  0  0
 25 45  1  0  0  0
 26 27  2  0  0  0
 26 46  1  0  0  0
 27 47  1  0  0  0
 28 29  2  0  0  0
 28 48  1  0  0  0
 29 49  1  0  0  0
M  CHG  1   3  -1
M  END
> <s_m_source_file>
/home/user-home/yujie/0_PBCNetv2/data/FEP/MCL1/inp_ligprep.csv

> <i_m_source_file_index>
36

> <i_lp_mmshare_version>
51139

> <i_f3d_flags>
0

> <s_epik_input>
W2NIXTFbY0hdW2NIXVtjSF1jKGMxMiljKGMoW25IXTIpQyg9TylbT0hdKVtDSDJdW0NIMl1bQ0gyXU9jM1tjSF1bY0hdYyhbY0hdW2NIXTMpT2M0W2NIXVtjSF1bY0hdW2NIXVtjSF00

> <s_epik_cmdline>
J2VwaWtfcHl0aG9uJywgJy1waHQnLCAnMi4wJywgJy1waCcsICc3LjQnLCAnLXRuJywgJzgnLCAnLW1hJywgJzIwMCcsICctaW1hZScsICc8aW5maWxlLm1hZT4nLCAnLW9tYWUnLCAnPG91dGZpbGUubWFlPic=

> <r_lp_tautomer_probability>
1

> <r_epik_Ionization_Penalty>
  0.0006

> <r_epik_Ionization_Penalty_Charging>
  0.0006

> <r_epik_Ionization_Penalty_Neutral>
  0.0000

> <r_epik_State_Penalty>
  0.0004

> <r_epik_Charging_Adjusted_Penalty>
0.000921483

> <i_epik_Tot_Q>
-1

> <i_epik_Tot_abs_Q>
1

> <s_lp_Force_Field>
OPLS3e

> <r_lp_Energy>
44.5805

> <b_lp_Chiralities_Consistent>
1

> <s_lp_Variant>
MCL1_41-1

> <s_i_glide_gridfile>
MCL1-001-gridgen

> <i_i_glide_lignum>
37

> <i_i_glide_rotatable_bonds>
8

> <r_i_docking_score>
-7.08946038806835

> <r_i_glide_ligand_efficiency>
-0.244464151312702

> <r_i_glide_ligand_efficiency_sa>
-0.751071324511998

> <r_i_glide_ligand_efficiency_ln>
-1.62330665566347

> <r_i_glide_gscore>
-7.08981563406835

> <r_i_glide_lipo>
-5.51603226568336

> <r_i_glide_hbond>
-0.184906360523743

> <r_i_glide_metal>
-0

> <r_i_glide_rewards>
-0.623546428389288

> <r_i_glide_evdw>
-25.6786479949951

> <r_i_glide_ecoul>
-2.51663279533386

> <r_i_glide_erotb>
0.912416869947118

> <r_i_glide_esite>
-0.0163201303692458

> <r_i_glide_emodel>
-45.1769923118239

> <r_i_glide_energy>
-28.195280790329

> <r_i_glide_einternal>
10.1731977462769

> <i_i_glide_confnum>
53

> <i_i_glide_posenum>
70

> <r_i_glide_eff_state_penalty>
0.000355246

$$$$
