MCL1_48
                    3D
 Schrodinger Suite 2020-3.
 42 45  0  0  1  0            999 V2000
   36.2786   -9.4598   19.4332 O   0  0  0  0  0  0
   35.2265   -8.8902   19.8032 C   0  0  0  0  0  0
   34.1667   -8.8646   19.1372 O   0  5  0  0  0  0
   35.2314   -8.2421   21.1279 C   0  0  0  0  0  0
   34.0215   -7.8598   21.6637 N   0  0  0  0  0  0
   34.1826   -7.4010   22.9507 C   0  0  0  0  0  0
   33.2492   -6.9682   23.8996 C   0  0  0  0  0  0
   33.7418   -6.6057   25.1540 C   0  0  0  0  0  0
   35.1016   -6.6561   25.4498 C   0  0  0  0  0  0
   36.0319   -7.0582   24.4941 C   0  0  0  0  0  0
   35.5836   -7.4510   23.2206 C   0  0  0  0  0  0
   36.2450   -7.9355   22.0354 C   0  0  0  0  0  0
   37.7376   -8.1309   21.8639 C   0  0  0  0  0  0
   38.1785   -9.5810   22.1379 C   0  0  0  0  0  0
   38.0014  -10.0314   23.5988 C   0  0  0  0  0  0
   38.6790   -9.1193   24.4609 O   0  0  0  0  0  0
   39.0379   -9.5295   25.7286 C   0  0  0  0  0  0
   40.2743   -9.1190   26.2333 C   0  0  0  0  0  0
   40.6809   -9.4600   27.5192 C   0  0  0  0  0  0
   39.8790  -10.2293   28.3638 C   0  0  0  0  0  0
   38.6228  -10.6080   27.8822 C   0  0  0  0  0  0
   37.6081  -11.3098   28.4987 N   0  0  0  0  0  0
   36.5168  -11.3817   27.6737 C   0  0  0  0  0  0
   36.8100  -10.7557   26.4839 C   0  0  0  0  0  0
   38.1594  -10.2596   26.5714 C   0  0  0  0  0  0
   33.1630   -7.9803   21.1451 H   0  0  0  0  0  0
   37.6108  -11.6931   29.4326 H   0  0  0  0  0  0
   32.1921   -6.9320   23.6860 H   0  0  0  0  0  0
   33.0517   -6.2771   25.9177 H   0  0  0  0  0  0
   35.4427   -6.3619   26.4320 H   0  0  0  0  0  0
   37.0837   -7.0812   24.7379 H   0  0  0  0  0  0
   38.0427   -7.8466   20.8560 H   0  0  0  0  0  0
   38.2795   -7.4570   22.5258 H   0  0  0  0  0  0
   37.6233  -10.2602   21.4913 H   0  0  0  0  0  0
   39.2157   -9.6944   21.8333 H   0  0  0  0  0  0
   36.9391  -10.0465   23.8268 H   0  0  0  0  0  0
   38.3813  -11.0483   23.7224 H   0  0  0  0  0  0
   40.9302   -8.5319   25.6085 H   0  0  0  0  0  0
   41.6504   -9.1297   27.8664 H   0  0  0  0  0  0
   40.2103  -10.4881   29.3585 H   0  0  0  0  0  0
   35.6105  -11.8600   28.0146 H   0  0  0  0  0  0
   36.1090  -10.6575   25.6704 H   0  0  0  0  0  0
  1  2  2  0  0  0
  2  3  1  0  0  0
  2  4  1  0  0  0
  4 12  2  0  0  0
  4  5  1  0  0  0
  5 26  1  0  0  0
  5  6  1  0  0  0
  6 11  2  0  0  0
  6  7  1  0  0  0
  7  8  2  0  0  0
  7 28  1  0  0  0
  8  9  1  0  0  0
  8 29  1  0  0  0
  9 10  2  0  0  0
  9 30  1  0  0  0
 10 11  1  0  0  0
 10 31  1  0  0  0
 11 12  1  0  0  0
 12 13  1  0  0  0
 13 14  1  0  0  0
 13 32  1  0  0  0
 13 33  1  0  0  0
 14 15  1  0  0  0
 14 34  1  0  0  0
 14 35  1  0  0  0
 15 16  1  0  0  0
 15 36  1  0  0  0
 15 37  1  0  0  0
 16 17  1  0  0  0
 17 25  1  0  0  0
 17 18  2  0  0  0
 18 19  1  0  0  0
 18 38  1  0  0  0
 19 20  2  0  0  0
 19 39  1  0  0  0
 20 21  1  0  0  0
 20 40  1  0  0  0
 21 25  2  0  0  0
 21 22  1  0  0  0
 22 27  1  0  0  0
 22 23  1  0  0  0
 23 24  2  0  0  0
 23 41  1  0  0  0
 24 25  1  0  0  0
 24 42  1  0  0  0
M  CHG  1   3  -1
M  END
> <s_m_source_file>
/home/user-home/yujie/0_PBCNetv2/data/FEP/MCL1/inp_ligprep.csv

> <i_m_source_file_index>
29

> <i_lp_mmshare_version>
51139

> <i_f3d_flags>
0

> <s_epik_input>
W2NIXTFbY0hdW2NIXVtjSF1jKGMxMiljKGMoW25IXTIpQyg9TylbT0hdKVtDSDJdW0NIMl1bQ0gyXU9jKFtjSF1bY0hdW2NIXTMpYyhjMzQpW2NIXVtjSF1bbkhdNA==

> <s_epik_cmdline>
J2VwaWtfcHl0aG9uJywgJy1waHQnLCAnMi4wJywgJy1waCcsICc3LjQnLCAnLXRuJywgJzgnLCAnLW1hJywgJzIwMCcsICctaW1hZScsICc8aW5maWxlLm1hZT4nLCAnLW9tYWUnLCAnPG91dGZpbGUubWFlPic=

> <r_epik_Ionization_Penalty>
  0.0006

> <r_epik_Ionization_Penalty_Charging>
  0.0006

> <r_epik_Ionization_Penalty_Neutral>
  0.0000

> <r_epik_State_Penalty>
  0.0004

> <r_epik_Charging_Adjusted_Penalty>
0.000921483

> <i_epik_Tot_Q>
-1

> <i_epik_Tot_abs_Q>
1

> <s_lp_Force_Field>
OPLS3e

> <r_lp_Energy>
37.8137

> <b_lp_Chiralities_Consistent>
1

> <s_lp_Variant>
MCL1_48-1

> <s_i_glide_gridfile>
MCL1-001-gridgen

> <i_i_glide_lignum>
30

> <i_i_glide_rotatable_bonds>
6

> <r_i_docking_score>
-9.19527352166444

> <r_i_glide_ligand_efficiency>
-0.367810940866578

> <r_i_glide_ligand_efficiency_sa>
-1.07548571424868

> <r_i_glide_ligand_efficiency_ln>
-2.17955538474558

> <r_i_glide_gscore>
-9.19562876766444

> <r_i_glide_lipo>
-5.46302638344804

> <r_i_glide_hbond>
-0.2

> <r_i_glide_metal>
-0

> <r_i_glide_rewards>
-1.5660884090658

> <r_i_glide_evdw>
-43.6388511657715

> <r_i_glide_ecoul>
-2.98044848442078

> <r_i_glide_erotb>
0.678363432142764

> <r_i_glide_esite>
-0.0158675763416706

> <r_i_glide_emodel>
-77.2189884231609

> <r_i_glide_energy>
-46.6192996501923

> <r_i_glide_einternal>
7.67517614364624

> <i_i_glide_confnum>
6

> <i_i_glide_posenum>
7

> <r_i_glide_eff_state_penalty>
0.000355246

$$$$
