MCL1_26
                    3D
 Schrodinger Suite 2020-3.
 43 46  0  0  1  0            999 V2000
   36.2799   -9.4599   19.4335 O   0  0  0  0  0  0
   35.2400   -8.8636   19.7999 C   0  0  0  0  0  0
   34.2069   -8.7649   19.1001 O   0  5  0  0  0  0
   35.2247   -8.2529   21.1432 C   0  0  0  0  0  0
   34.0095   -7.9082   21.6805 O   0  0  0  0  0  0
   34.2428   -7.4541   22.9428 C   0  0  0  0  0  0
   33.2676   -7.0479   23.8649 C   0  0  0  0  0  0
   33.7167   -6.6577   25.1276 C   0  0  0  0  0  0
   35.0774   -6.6593   25.4453 C   0  0  0  0  0  0
   36.0415   -7.0464   24.5093 C   0  0  0  0  0  0
   35.6221   -7.4695   23.2345 C   0  0  0  0  0  0
   36.2647   -7.9607   22.0485 C   0  0  0  0  0  0
   37.7571   -8.1333   21.8591 C   0  0  0  0  0  0
   38.2612   -9.5715   22.1089 C   0  0  0  0  0  0
   38.0790  -10.1105   23.5418 C   0  0  0  0  0  0
   38.4472   -9.1099   24.4911 O   0  0  0  0  0  0
   38.9825   -9.5085   25.6958 C   0  0  0  0  0  0
   40.2699   -9.0595   25.9791 C   0  0  0  0  0  0
   40.8799   -9.3165   27.1989 C   0  0  0  0  0  0
   40.2161  -10.0526   28.1714 C   0  0  0  0  0  0
   38.9167  -10.5555   27.9275 C   0  0  0  0  0  0
   38.2400  -11.3250   28.9059 C   0  0  0  0  0  0
   36.9432  -11.7642   28.6788 C   0  0  0  0  0  0
   36.2852  -11.4397   27.4987 C   0  0  0  0  0  0
   36.9207  -10.6885   26.5157 C   0  0  0  0  0  0
   38.2665  -10.2598   26.6851 C   0  0  0  0  0  0
   32.2176   -7.0546   23.6091 H   0  0  0  0  0  0
   33.0012   -6.3454   25.8754 H   0  0  0  0  0  0
   35.3920   -6.3427   26.4317 H   0  0  0  0  0  0
   37.0893   -7.0326   24.7712 H   0  0  0  0  0  0
   38.0444   -7.8259   20.8531 H   0  0  0  0  0  0
   38.2791   -7.4458   22.5223 H   0  0  0  0  0  0
   37.7708  -10.2560   21.4159 H   0  0  0  0  0  0
   39.3114   -9.6108   21.8334 H   0  0  0  0  0  0
   37.0324  -10.3742   23.6647 H   0  0  0  0  0  0
   38.6535  -11.0304   23.6706 H   0  0  0  0  0  0
   40.7938   -8.4847   25.2356 H   0  0  0  0  0  0
   41.8756   -8.9445   27.3878 H   0  0  0  0  0  0
   40.6952  -10.2528   29.1154 H   0  0  0  0  0  0
   38.7344  -11.5561   29.8384 H   0  0  0  0  0  0
   36.4310  -12.3400   29.4344 H   0  0  0  0  0  0
   35.2645  -11.7629   27.3512 H   0  0  0  0  0  0
   36.3688  -10.4236   25.6319 H   0  0  0  0  0  0
  1  2  2  0  0  0
  2  3  1  0  0  0
  2  4  1  0  0  0
  4 12  2  0  0  0
  4  5  1  0  0  0
  5  6  1  0  0  0
  6 11  2  0  0  0
  6  7  1  0  0  0
  7  8  2  0  0  0
  7 27  1  0  0  0
  8  9  1  0  0  0
  8 28  1  0  0  0
  9 10  2  0  0  0
  9 29  1  0  0  0
 10 11  1  0  0  0
 10 30  1  0  0  0
 11 12  1  0  0  0
 12 13  1  0  0  0
 13 14  1  0  0  0
 13 31  1  0  0  0
 13 32  1  0  0  0
 14 15  1  0  0  0
 14 33  1  0  0  0
 14 34  1  0  0  0
 15 16  1  0  0  0
 15 35  1  0  0  0
 15 36  1  0  0  0
 16 17  1  0  0  0
 17 26  1  0  0  0
 17 18  2  0  0  0
 18 19  1  0  0  0
 18 37  1  0  0  0
 19 20  2  0  0  0
 19 38  1  0  0  0
 20 21  1  0  0  0
 20 39  1  0  0  0
 21 26  2  0  0  0
 21 22  1  0  0  0
 22 23  2  0  0  0
 22 40  1  0  0  0
 23 24  1  0  0  0
 23 41  1  0  0  0
 24 25  2  0  0  0
 24 42  1  0  0  0
 25 26  1  0  0  0
 25 43  1  0  0  0
M  CHG  1   3  -1
M  END
> <s_m_source_file>
/home/user-home/yujie/0_PBCNetv2/data/FEP/MCL1/inp_ligprep.csv

> <i_m_source_file_index>
32

> <i_lp_mmshare_version>
51139

> <i_f3d_flags>
0

> <s_epik_input>
W2NIXTFbY0hdW2NIXVtjSF1jKGMxMiljKGMobzIpQyg9TylbT0hdKVtDSDJdW0NIMl1bQ0gyXU9jKFtjSF1bY0hdW2NIXTMpYyhjMzQpW2NIXVtjSF1bY0hdW2NIXTQ=

> <s_epik_cmdline>
J2VwaWtfcHl0aG9uJywgJy1waHQnLCAnMi4wJywgJy1waCcsICc3LjQnLCAnLXRuJywgJzgnLCAnLW1hJywgJzIwMCcsICctaW1hZScsICc8aW5maWxlLm1hZT4nLCAnLW9tYWUnLCAnPG91dGZpbGUubWFlPic=

> <r_lp_tautomer_probability>
1

> <r_epik_Ionization_Penalty>
  0.0001

> <r_epik_Ionization_Penalty_Charging>
  0.0001

> <r_epik_Ionization_Penalty_Neutral>
  0.0000

> <r_epik_State_Penalty>
 -0.0000

> <r_epik_Charging_Adjusted_Penalty>
0.000100265

> <i_epik_Tot_Q>
-1

> <i_epik_Tot_abs_Q>
1

> <s_lp_Force_Field>
OPLS3e

> <r_lp_Energy>
43.9923

> <b_lp_Chiralities_Consistent>
1

> <s_lp_Variant>
MCL1_26-1

> <s_i_glide_gridfile>
MCL1-001-gridgen

> <i_i_glide_lignum>
33

> <i_i_glide_rotatable_bonds>
6

> <r_i_docking_score>
-10.0664433131295

> <r_i_glide_ligand_efficiency>
-0.387170896658827

> <r_i_glide_ligand_efficiency_sa>
-1.14699225790786

> <r_i_glide_ligand_efficiency_ln>
-2.36407118139385

> <r_i_glide_gscore>
-10.0664433131295

> <r_i_glide_lipo>
-5.95734042958749

> <r_i_glide_hbond>
-0.2

> <r_i_glide_metal>
-0

> <r_i_glide_rewards>
-1.95430922727273

> <r_i_glide_evdw>
-44.0894088745117

> <r_i_glide_ecoul>
-2.48101878166199

> <r_i_glide_erotb>
0.637125540834659

> <r_i_glide_esite>
-0.0152959361290533

> <r_i_glide_emodel>
-78.3516261123864

> <r_i_glide_energy>
-46.5704276561737

> <r_i_glide_einternal>
11.4584646224976

> <i_i_glide_confnum>
3

> <i_i_glide_posenum>
142

> <r_i_glide_eff_state_penalty>
-0

$$$$
